/*---------------------------------------------------------------------------*\
  =========                 |
  \\      /  F ield         | OpenFOAM: The Open Source CFD Toolbox
   \\    /   O peration     | Website:  https://openfoam.org
    \\  /    A nd           | Version:  7
     \\/     M anipulation  |
\*---------------------------------------------------------------------------*/
Build  : 7-49b2b3b8b082
Exec   : icoFoam
Date   : May 14 2021
Time   : 01:32:04
Host   : "c406-124.stampede2.tacc.utexas.edu"
PID    : 194578
I/O    : uncollated
Case   : /work2/06782/kenmeyer/stampede2/final_serial/COE347/finalProject/wedge2
nProcs : 1
sigFpe : Enabling floating point exception trapping (FOAM_SIGFPE).
fileModificationChecking : Monitoring run-time modified files using timeStampMaster (fileModificationSkew 10)
allowSystemOperations : Allowing user-supplied system call operations

// * * * * * * * * * * * * * * * * * * * * * * * * * * * * * * * * * * * * * //
Create time

Create mesh for time = 0

Reading transportProperties

Reading field p

Reading field U

Reading/calculating face flux field phi


Starting time loop

Time = 0.05

Courant Number mean: 0.0148597 max: 0.320381
smoothSolver:  Solving for Ux, Initial residual = 1, Final residual = 8.89453e-06, No Iterations 55
smoothSolver:  Solving for Uy, Initial residual = 0, Final residual = 0, No Iterations 0
DICPCG:  Solving for p, Initial residual = 1, Final residual = 0.0486593, No Iterations 615
time step continuity errors : sum local = 1.23706e-07, global = -4.09203e-09, cumulative = -4.09203e-09
DICPCG:  Solving for p, Initial residual = 0.126361, Final residual = 9.48078e-07, No Iterations 917
time step continuity errors : sum local = 6.23987e-11, global = -3.62703e-13, cumulative = -4.09239e-09
ExecutionTime = 20.4 s  ClockTime = 20 s

Time = 0.1

Courant Number mean: 0.014839 max: 0.396
smoothSolver:  Solving for Ux, Initial residual = 0.10508, Final residual = 9.75642e-06, No Iterations 35
smoothSolver:  Solving for Uy, Initial residual = 0.16169, Final residual = 9.90967e-06, No Iterations 37
DICPCG:  Solving for p, Initial residual = 0.220898, Final residual = 0.0110073, No Iterations 332
time step continuity errors : sum local = 7.06269e-07, global = 1.64879e-08, cumulative = 1.23955e-08
DICPCG:  Solving for p, Initial residual = 0.264616, Final residual = 9.83829e-07, No Iterations 935
time step continuity errors : sum local = 4.46891e-11, global = 1.30402e-13, cumulative = 1.23956e-08
ExecutionTime = 35.7 s  ClockTime = 35 s

Time = 0.15

Courant Number mean: 0.0149106 max: 0.517948
smoothSolver:  Solving for Ux, Initial residual = 0.138704, Final residual = 9.78418e-06, No Iterations 38
smoothSolver:  Solving for Uy, Initial residual = 0.0915015, Final residual = 9.06305e-06, No Iterations 32
DICPCG:  Solving for p, Initial residual = 0.376583, Final residual = 0.0185903, No Iterations 196
time step continuity errors : sum local = 7.9333e-07, global = -6.48238e-09, cumulative = 5.91323e-09
DICPCG:  Solving for p, Initial residual = 0.319261, Final residual = 9.88633e-07, No Iterations 905
time step continuity errors : sum local = 3.49746e-11, global = -4.91041e-13, cumulative = 5.91274e-09
ExecutionTime = 48.86 s  ClockTime = 49 s

Time = 0.2

Courant Number mean: 0.0148739 max: 0.442951
smoothSolver:  Solving for Ux, Initial residual = 0.0268953, Final residual = 8.92594e-06, No Iterations 29
smoothSolver:  Solving for Uy, Initial residual = 0.0401319, Final residual = 9.41235e-06, No Iterations 28
DICPCG:  Solving for p, Initial residual = 0.342751, Final residual = 0.0168339, No Iterations 196
time step continuity errors : sum local = 3.63162e-07, global = 4.28706e-09, cumulative = 1.01998e-08
DICPCG:  Solving for p, Initial residual = 0.300697, Final residual = 9.74568e-07, No Iterations 906
time step continuity errors : sum local = 1.67737e-11, global = 4.33591e-14, cumulative = 1.01998e-08
ExecutionTime = 61.47 s  ClockTime = 61 s

Time = 0.25

Courant Number mean: 0.0148747 max: 0.444553
smoothSolver:  Solving for Ux, Initial residual = 0.00861141, Final residual = 9.95143e-06, No Iterations 27
smoothSolver:  Solving for Uy, Initial residual = 0.0123243, Final residual = 9.61972e-06, No Iterations 26
DICPCG:  Solving for p, Initial residual = 0.582644, Final residual = 0.0288287, No Iterations 167
time step continuity errors : sum local = 2.14546e-07, global = -1.41891e-09, cumulative = 8.78094e-09
DICPCG:  Solving for p, Initial residual = 0.215567, Final residual = 9.89046e-07, No Iterations 872
time step continuity errors : sum local = 1.48893e-11, global = -6.16539e-14, cumulative = 8.78087e-09
ExecutionTime = 73.55 s  ClockTime = 73 s

Time = 0.3

Courant Number mean: 0.0148659 max: 0.41997
smoothSolver:  Solving for Ux, Initial residual = 0.00534671, Final residual = 8.75706e-06, No Iterations 26
smoothSolver:  Solving for Uy, Initial residual = 0.00956938, Final residual = 9.3566e-06, No Iterations 23
DICPCG:  Solving for p, Initial residual = 0.554519, Final residual = 0.0276247, No Iterations 190
time step continuity errors : sum local = 1.23604e-07, global = 2.23602e-10, cumulative = 9.00448e-09
DICPCG:  Solving for p, Initial residual = 0.220623, Final residual = 9.79881e-07, No Iterations 873
time step continuity errors : sum local = 8.33421e-12, global = -3.02454e-14, cumulative = 9.00445e-09
ExecutionTime = 85.72 s  ClockTime = 85 s

Time = 0.35

Courant Number mean: 0.0148606 max: 0.404482
smoothSolver:  Solving for Ux, Initial residual = 0.00325447, Final residual = 8.55557e-06, No Iterations 24
smoothSolver:  Solving for Uy, Initial residual = 0.00655742, Final residual = 9.54203e-06, No Iterations 24
DICPCG:  Solving for p, Initial residual = 0.421845, Final residual = 0.0209991, No Iterations 175
time step continuity errors : sum local = 8.09011e-08, global = 1.85084e-11, cumulative = 9.02295e-09
DICPCG:  Solving for p, Initial residual = 0.281806, Final residual = 9.82302e-07, No Iterations 892
time step continuity errors : sum local = 4.41546e-12, global = -1.80645e-14, cumulative = 9.02294e-09
ExecutionTime = 98.28 s  ClockTime = 98 s

Time = 0.4

Courant Number mean: 0.0148554 max: 0.388317
smoothSolver:  Solving for Ux, Initial residual = 0.0026589, Final residual = 9.40756e-06, No Iterations 23
smoothSolver:  Solving for Uy, Initial residual = 0.00565339, Final residual = 9.36381e-06, No Iterations 21
DICPCG:  Solving for p, Initial residual = 0.483181, Final residual = 0.0238241, No Iterations 195
time step continuity errors : sum local = 5.58408e-08, global = -1.27498e-10, cumulative = 8.89544e-09
DICPCG:  Solving for p, Initial residual = 0.228753, Final residual = 9.60599e-07, No Iterations 870
time step continuity errors : sum local = 3.73972e-12, global = 1.83472e-14, cumulative = 8.89546e-09
ExecutionTime = 110.48 s  ClockTime = 110 s

Time = 0.45

Courant Number mean: 0.0148508 max: 0.374857
smoothSolver:  Solving for Ux, Initial residual = 0.00222959, Final residual = 9.96289e-06, No Iterations 21
smoothSolver:  Solving for Uy, Initial residual = 0.00490882, Final residual = 8.64199e-06, No Iterations 23
DICPCG:  Solving for p, Initial residual = 0.309922, Final residual = 0.015487, No Iterations 169
time step continuity errors : sum local = 4.25619e-08, global = 9.19154e-11, cumulative = 8.98737e-09
DICPCG:  Solving for p, Initial residual = 0.272441, Final residual = 9.71555e-07, No Iterations 892
time step continuity errors : sum local = 2.4231e-12, global = 1.89649e-14, cumulative = 8.98739e-09
ExecutionTime = 122.73 s  ClockTime = 122 s

Time = 0.5

Courant Number mean: 0.0148466 max: 0.365171
smoothSolver:  Solving for Ux, Initial residual = 0.00189443, Final residual = 9.50858e-06, No Iterations 21
smoothSolver:  Solving for Uy, Initial residual = 0.00420063, Final residual = 9.34854e-06, No Iterations 20
DICPCG:  Solving for p, Initial residual = 0.346362, Final residual = 0.0173043, No Iterations 182
time step continuity errors : sum local = 3.29111e-08, global = -2.68834e-11, cumulative = 8.96051e-09
DICPCG:  Solving for p, Initial residual = 0.172774, Final residual = 9.79378e-07, No Iterations 846
time step continuity errors : sum local = 2.99036e-12, global = 7.66246e-15, cumulative = 8.96051e-09
ExecutionTime = 134.45 s  ClockTime = 134 s

Time = 0.55

Courant Number mean: 0.0148426 max: 0.357716
smoothSolver:  Solving for Ux, Initial residual = 0.0016816, Final residual = 9.02651e-06, No Iterations 20
smoothSolver:  Solving for Uy, Initial residual = 0.00393708, Final residual = 8.82157e-06, No Iterations 22
DICPCG:  Solving for p, Initial residual = 0.223369, Final residual = 0.0111476, No Iterations 201
time step continuity errors : sum local = 2.56759e-08, global = 8.56444e-11, cumulative = 9.04616e-09
DICPCG:  Solving for p, Initial residual = 0.248727, Final residual = 9.80915e-07, No Iterations 891
time step continuity errors : sum local = 1.65792e-12, global = 2.46921e-15, cumulative = 9.04616e-09
ExecutionTime = 146.67 s  ClockTime = 146 s

Time = 0.6

Courant Number mean: 0.0148389 max: 0.350669
smoothSolver:  Solving for Ux, Initial residual = 0.00148823, Final residual = 8.62553e-06, No Iterations 20
smoothSolver:  Solving for Uy, Initial residual = 0.00346607, Final residual = 9.13493e-06, No Iterations 20
DICPCG:  Solving for p, Initial residual = 0.23956, Final residual = 0.011681, No Iterations 171
time step continuity errors : sum local = 2.12573e-08, global = -1.94389e-11, cumulative = 9.02672e-09
DICPCG:  Solving for p, Initial residual = 0.143995, Final residual = 9.63696e-07, No Iterations 856
time step continuity errors : sum local = 2.41224e-12, global = 4.05095e-15, cumulative = 9.02673e-09
ExecutionTime = 158.28 s  ClockTime = 158 s

Time = 0.65

Courant Number mean: 0.0148353 max: 0.343816
smoothSolver:  Solving for Ux, Initial residual = 0.00137567, Final residual = 8.54576e-06, No Iterations 19
smoothSolver:  Solving for Uy, Initial residual = 0.00336935, Final residual = 9.59954e-06, No Iterations 21
DICPCG:  Solving for p, Initial residual = 0.177996, Final residual = 0.00876724, No Iterations 202
time step continuity errors : sum local = 1.78833e-08, global = 5.11771e-11, cumulative = 9.0779e-09
DICPCG:  Solving for p, Initial residual = 0.180538, Final residual = 9.98565e-07, No Iterations 868
time step continuity errors : sum local = 1.70137e-12, global = -1.85756e-14, cumulative = 9.07789e-09
ExecutionTime = 170.37 s  ClockTime = 170 s

Time = 0.7

Courant Number mean: 0.0148319 max: 0.337348
smoothSolver:  Solving for Ux, Initial residual = 0.00125206, Final residual = 9.84668e-06, No Iterations 18
smoothSolver:  Solving for Uy, Initial residual = 0.00310068, Final residual = 9.42045e-06, No Iterations 20
DICPCG:  Solving for p, Initial residual = 0.192445, Final residual = 0.00961194, No Iterations 165
time step continuity errors : sum local = 1.67239e-08, global = 2.98003e-12, cumulative = 9.08087e-09
DICPCG:  Solving for p, Initial residual = 0.12021, Final residual = 9.73917e-07, No Iterations 862
time step continuity errors : sum local = 2.3181e-12, global = -9.8344e-15, cumulative = 9.08086e-09
ExecutionTime = 181.94 s  ClockTime = 182 s

Time = 0.75

Courant Number mean: 0.0148287 max: 0.331196
smoothSolver:  Solving for Ux, Initial residual = 0.0011796, Final residual = 8.35726e-06, No Iterations 18
smoothSolver:  Solving for Uy, Initial residual = 0.00302356, Final residual = 9.50035e-06, No Iterations 21
DICPCG:  Solving for p, Initial residual = 0.158849, Final residual = 0.00790033, No Iterations 207
time step continuity errors : sum local = 1.48822e-08, global = 3.57091e-11, cumulative = 9.11656e-09
DICPCG:  Solving for p, Initial residual = 0.132938, Final residual = 9.73852e-07, No Iterations 865
time step continuity errors : sum local = 1.92521e-12, global = 1.30608e-14, cumulative = 9.11658e-09
ExecutionTime = 193.98 s  ClockTime = 194 s

Time = 0.8

Courant Number mean: 0.0148256 max: 0.325306
smoothSolver:  Solving for Ux, Initial residual = 0.00109204, Final residual = 9.74049e-06, No Iterations 17
smoothSolver:  Solving for Uy, Initial residual = 0.00283903, Final residual = 8.46309e-06, No Iterations 21
DICPCG:  Solving for p, Initial residual = 0.173574, Final residual = 0.0086632, No Iterations 193
time step continuity errors : sum local = 1.47255e-08, global = -1.69749e-14, cumulative = 9.11656e-09
DICPCG:  Solving for p, Initial residual = 0.110543, Final residual = 9.68593e-07, No Iterations 863
time step continuity errors : sum local = 2.29387e-12, global = 7.01437e-15, cumulative = 9.11657e-09
ExecutionTime = 205.97 s  ClockTime = 206 s

Time = 0.85

Courant Number mean: 0.0148226 max: 0.31979
smoothSolver:  Solving for Ux, Initial residual = 0.00104031, Final residual = 8.55614e-06, No Iterations 17
smoothSolver:  Solving for Uy, Initial residual = 0.00281001, Final residual = 9.66054e-06, No Iterations 21
DICPCG:  Solving for p, Initial residual = 0.153077, Final residual = 0.00760173, No Iterations 207
time step continuity errors : sum local = 1.3925e-08, global = 2.16839e-11, cumulative = 9.13825e-09
DICPCG:  Solving for p, Initial residual = 0.131513, Final residual = 9.82478e-07, No Iterations 863
time step continuity errors : sum local = 1.90245e-12, global = -1.61219e-14, cumulative = 9.13824e-09
ExecutionTime = 217.89 s  ClockTime = 218 s

Time = 0.9

Courant Number mean: 0.0148198 max: 0.314536
smoothSolver:  Solving for Ux, Initial residual = 0.000980921, Final residual = 9.97484e-06, No Iterations 16
smoothSolver:  Solving for Uy, Initial residual = 0.00273102, Final residual = 9.01627e-06, No Iterations 21
DICPCG:  Solving for p, Initial residual = 0.17105, Final residual = 0.00843489, No Iterations 198
time step continuity errors : sum local = 1.41107e-08, global = -1.14862e-12, cumulative = 9.13709e-09
DICPCG:  Solving for p, Initial residual = 0.112268, Final residual = 9.66615e-07, No Iterations 862
time step continuity errors : sum local = 2.26423e-12, global = -9.54716e-15, cumulative = 9.13708e-09
ExecutionTime = 229.72 s  ClockTime = 229 s

Time = 0.95

Courant Number mean: 0.014817 max: 0.309607
smoothSolver:  Solving for Ux, Initial residual = 0.00093861, Final residual = 9.00654e-06, No Iterations 16
smoothSolver:  Solving for Uy, Initial residual = 0.00268326, Final residual = 8.54979e-06, No Iterations 22
DICPCG:  Solving for p, Initial residual = 0.158873, Final residual = 0.00785743, No Iterations 210
time step continuity errors : sum local = 1.40899e-08, global = 2.00156e-11, cumulative = 9.15709e-09
DICPCG:  Solving for p, Initial residual = 0.136278, Final residual = 9.86621e-07, No Iterations 863
time step continuity errors : sum local = 1.9315e-12, global = -1.71689e-14, cumulative = 9.15708e-09
ExecutionTime = 241.7 s  ClockTime = 241 s

Time = 1

Courant Number mean: 0.0148144 max: 0.304885
smoothSolver:  Solving for Ux, Initial residual = 0.000896109, Final residual = 8.781e-06, No Iterations 16
smoothSolver:  Solving for Uy, Initial residual = 0.00263872, Final residual = 9.84184e-06, No Iterations 21
DICPCG:  Solving for p, Initial residual = 0.180481, Final residual = 0.00901644, No Iterations 203
time step continuity errors : sum local = 1.48618e-08, global = -1.10579e-12, cumulative = 9.15597e-09
DICPCG:  Solving for p, Initial residual = 0.1165, Final residual = 9.99719e-07, No Iterations 873
time step continuity errors : sum local = 2.40434e-12, global = 7.37209e-15, cumulative = 9.15598e-09
ExecutionTime = 256.27 s  ClockTime = 256 s

Time = 1.05

Courant Number mean: 0.0148118 max: 0.300411
smoothSolver:  Solving for Ux, Initial residual = 0.000865764, Final residual = 9.84485e-06, No Iterations 15
smoothSolver:  Solving for Uy, Initial residual = 0.00261434, Final residual = 9.21121e-06, No Iterations 22
DICPCG:  Solving for p, Initial residual = 0.172069, Final residual = 0.00856988, No Iterations 214
time step continuity errors : sum local = 1.52483e-08, global = 2.20374e-11, cumulative = 9.17801e-09
DICPCG:  Solving for p, Initial residual = 0.145287, Final residual = 9.97971e-07, No Iterations 875
time step continuity errors : sum local = 2.00717e-12, global = 4.06469e-15, cumulative = 9.17802e-09
ExecutionTime = 268.43 s  ClockTime = 268 s

Time = 1.1

Courant Number mean: 0.0148093 max: 0.29616
smoothSolver:  Solving for Ux, Initial residual = 0.000830212, Final residual = 9.71643e-06, No Iterations 15
smoothSolver:  Solving for Uy, Initial residual = 0.00258316, Final residual = 9.25408e-06, No Iterations 22
DICPCG:  Solving for p, Initial residual = 0.19903, Final residual = 0.00982538, No Iterations 206
time step continuity errors : sum local = 1.60541e-08, global = -1.47615e-12, cumulative = 9.17654e-09
DICPCG:  Solving for p, Initial residual = 0.124998, Final residual = 9.95637e-07, No Iterations 882
time step continuity errors : sum local = 2.48528e-12, global = -9.51994e-15, cumulative = 9.17653e-09
ExecutionTime = 280.61 s  ClockTime = 280 s

Time = 1.15

Courant Number mean: 0.0148069 max: 0.292492
smoothSolver:  Solving for Ux, Initial residual = 0.000808986, Final residual = 9.15741e-06, No Iterations 15
smoothSolver:  Solving for Uy, Initial residual = 0.00257827, Final residual = 8.6216e-06, No Iterations 23
DICPCG:  Solving for p, Initial residual = 0.19073, Final residual = 0.00949891, No Iterations 216
time step continuity errors : sum local = 1.6926e-08, global = 2.49806e-11, cumulative = 9.20151e-09
DICPCG:  Solving for p, Initial residual = 0.158476, Final residual = 9.9776e-07, No Iterations 903
time step continuity errors : sum local = 2.07497e-12, global = 1.59383e-14, cumulative = 9.20153e-09
ExecutionTime = 293.23 s  ClockTime = 293 s

Time = 1.2

Courant Number mean: 0.0148045 max: 0.290012
smoothSolver:  Solving for Ux, Initial residual = 0.000783093, Final residual = 9.11614e-06, No Iterations 15
smoothSolver:  Solving for Uy, Initial residual = 0.00257449, Final residual = 8.86666e-06, No Iterations 23
DICPCG:  Solving for p, Initial residual = 0.224655, Final residual = 0.0110144, No Iterations 207
time step continuity errors : sum local = 1.79565e-08, global = -7.30002e-13, cumulative = 9.2008e-09
DICPCG:  Solving for p, Initial residual = 0.134547, Final residual = 9.90853e-07, No Iterations 900
time step continuity errors : sum local = 2.61791e-12, global = 1.61774e-14, cumulative = 9.20082e-09
ExecutionTime = 305.63 s  ClockTime = 305 s

Time = 1.25

Courant Number mean: 0.0148022 max: 0.287594
smoothSolver:  Solving for Ux, Initial residual = 0.000767961, Final residual = 8.73229e-06, No Iterations 15
smoothSolver:  Solving for Uy, Initial residual = 0.00258623, Final residual = 9.72764e-06, No Iterations 23
DICPCG:  Solving for p, Initial residual = 0.215016, Final residual = 0.010727, No Iterations 219
time step continuity errors : sum local = 1.93662e-08, global = 3.026e-11, cumulative = 9.23108e-09
DICPCG:  Solving for p, Initial residual = 0.177144, Final residual = 9.94909e-07, No Iterations 911
time step continuity errors : sum local = 2.14412e-12, global = 1.95125e-14, cumulative = 9.2311e-09
ExecutionTime = 318.29 s  ClockTime = 318 s

Time = 1.3

Courant Number mean: 0.0148 max: 0.285209
smoothSolver:  Solving for Ux, Initial residual = 0.000747327, Final residual = 8.77884e-06, No Iterations 15
smoothSolver:  Solving for Uy, Initial residual = 0.00259989, Final residual = 8.62658e-06, No Iterations 24
DICPCG:  Solving for p, Initial residual = 0.256991, Final residual = 0.0126599, No Iterations 206
time step continuity errors : sum local = 2.07318e-08, global = -2.24413e-13, cumulative = 9.23087e-09
DICPCG:  Solving for p, Initial residual = 0.146919, Final residual = 9.68462e-07, No Iterations 907
time step continuity errors : sum local = 2.7226e-12, global = 1.83489e-14, cumulative = 9.23089e-09
ExecutionTime = 330.75 s  ClockTime = 330 s

Time = 1.35

Courant Number mean: 0.0147978 max: 0.282889
smoothSolver:  Solving for Ux, Initial residual = 0.000738704, Final residual = 8.54844e-06, No Iterations 15
smoothSolver:  Solving for Uy, Initial residual = 0.00263052, Final residual = 9.48641e-06, No Iterations 24
DICPCG:  Solving for p, Initial residual = 0.243513, Final residual = 0.0120068, No Iterations 222
time step continuity errors : sum local = 2.22213e-08, global = 3.61063e-11, cumulative = 9.267e-09
DICPCG:  Solving for p, Initial residual = 0.199711, Final residual = 9.71383e-07, No Iterations 914
time step continuity errors : sum local = 2.17409e-12, global = 1.92747e-14, cumulative = 9.26701e-09
ExecutionTime = 343.23 s  ClockTime = 343 s

Time = 1.4

Courant Number mean: 0.0147957 max: 0.280601
smoothSolver:  Solving for Ux, Initial residual = 0.00072244, Final residual = 8.69204e-06, No Iterations 15
smoothSolver:  Solving for Uy, Initial residual = 0.00266653, Final residual = 8.52391e-06, No Iterations 25
DICPCG:  Solving for p, Initial residual = 0.297848, Final residual = 0.0148363, No Iterations 155
time step continuity errors : sum local = 2.4585e-08, global = 7.99289e-13, cumulative = 9.26781e-09
DICPCG:  Solving for p, Initial residual = 0.170767, Final residual = 9.46526e-07, No Iterations 912
time step continuity errors : sum local = 2.70382e-12, global = 2.10699e-14, cumulative = 9.26784e-09
ExecutionTime = 355.29 s  ClockTime = 355 s

Time = 1.45

Courant Number mean: 0.0147935 max: 0.278821
smoothSolver:  Solving for Ux, Initial residual = 0.000717799, Final residual = 8.56911e-06, No Iterations 15
smoothSolver:  Solving for Uy, Initial residual = 0.00277943, Final residual = 9.59265e-06, No Iterations 25
DICPCG:  Solving for p, Initial residual = 0.259139, Final residual = 0.0127313, No Iterations 232
time step continuity errors : sum local = 2.63654e-08, global = 4.17738e-11, cumulative = 9.30961e-09
DICPCG:  Solving for p, Initial residual = 0.334562, Final residual = 9.92045e-07, No Iterations 925
time step continuity errors : sum local = 1.61582e-12, global = 8.53028e-15, cumulative = 9.30962e-09
ExecutionTime = 368.27 s  ClockTime = 368 s

Time = 1.5

Courant Number mean: 0.0147915 max: 0.278177
smoothSolver:  Solving for Ux, Initial residual = 0.000703558, Final residual = 8.89746e-06, No Iterations 15
smoothSolver:  Solving for Uy, Initial residual = 0.00279463, Final residual = 8.54014e-06, No Iterations 26
DICPCG:  Solving for p, Initial residual = 0.37675, Final residual = 0.0187439, No Iterations 155
time step continuity errors : sum local = 3.05993e-08, global = -6.78179e-12, cumulative = 9.30284e-09
DICPCG:  Solving for p, Initial residual = 0.193475, Final residual = 9.73096e-07, No Iterations 914
time step continuity errors : sum local = 3.02991e-12, global = 2.19067e-14, cumulative = 9.30286e-09
ExecutionTime = 380.39 s  ClockTime = 380 s

Time = 1.55

Courant Number mean: 0.0147895 max: 0.277591
smoothSolver:  Solving for Ux, Initial residual = 0.000718717, Final residual = 9.03634e-06, No Iterations 15
smoothSolver:  Solving for Uy, Initial residual = 0.00296902, Final residual = 9.67337e-06, No Iterations 26
DICPCG:  Solving for p, Initial residual = 0.294401, Final residual = 0.0144449, No Iterations 233
time step continuity errors : sum local = 3.18086e-08, global = 6.32958e-11, cumulative = 9.36615e-09
DICPCG:  Solving for p, Initial residual = 0.390228, Final residual = 9.50818e-07, No Iterations 928
time step continuity errors : sum local = 1.60266e-12, global = 7.91034e-15, cumulative = 9.36616e-09
ExecutionTime = 393.4 s  ClockTime = 393 s

Time = 1.6

Courant Number mean: 0.0147876 max: 0.276873
smoothSolver:  Solving for Ux, Initial residual = 0.000700149, Final residual = 9.36461e-06, No Iterations 15
smoothSolver:  Solving for Uy, Initial residual = 0.00296906, Final residual = 8.65663e-06, No Iterations 27
DICPCG:  Solving for p, Initial residual = 0.428329, Final residual = 0.0214038, No Iterations 158
time step continuity errors : sum local = 3.71964e-08, global = -8.87787e-12, cumulative = 9.35728e-09
DICPCG:  Solving for p, Initial residual = 0.208653, Final residual = 9.74019e-07, No Iterations 916
time step continuity errors : sum local = 3.42109e-12, global = 1.95137e-14, cumulative = 9.3573e-09
ExecutionTime = 405.58 s  ClockTime = 405 s

Time = 1.65

Courant Number mean: 0.0147856 max: 0.276248
smoothSolver:  Solving for Ux, Initial residual = 0.000731648, Final residual = 9.86077e-06, No Iterations 15
smoothSolver:  Solving for Uy, Initial residual = 0.00320324, Final residual = 9.83622e-06, No Iterations 27
DICPCG:  Solving for p, Initial residual = 0.331991, Final residual = 0.0165406, No Iterations 233
time step continuity errors : sum local = 3.8941e-08, global = 7.65955e-11, cumulative = 9.4339e-09
DICPCG:  Solving for p, Initial residual = 0.44494, Final residual = 9.57644e-07, No Iterations 930
time step continuity errors : sum local = 1.71245e-12, global = 8.81379e-15, cumulative = 9.43391e-09
ExecutionTime = 418.58 s  ClockTime = 418 s

Time = 1.7

Courant Number mean: 0.0147838 max: 0.275467
smoothSolver:  Solving for Ux, Initial residual = 0.000710039, Final residual = 8.37269e-06, No Iterations 16
smoothSolver:  Solving for Uy, Initial residual = 0.00320984, Final residual = 8.83522e-06, No Iterations 28
DICPCG:  Solving for p, Initial residual = 0.463712, Final residual = 0.0229288, No Iterations 198
time step continuity errors : sum local = 4.45565e-08, global = -2.60337e-11, cumulative = 9.40787e-09
DICPCG:  Solving for p, Initial residual = 0.209206, Final residual = 9.91217e-07, No Iterations 916
time step continuity errors : sum local = 4.21875e-12, global = 2.71176e-14, cumulative = 9.4079e-09
ExecutionTime = 431.27 s  ClockTime = 431 s

Time = 1.75

Courant Number mean: 0.0147819 max: 0.274811
smoothSolver:  Solving for Ux, Initial residual = 0.000751024, Final residual = 8.65476e-06, No Iterations 16
smoothSolver:  Solving for Uy, Initial residual = 0.00336958, Final residual = 9.90491e-06, No Iterations 28
DICPCG:  Solving for p, Initial residual = 0.401699, Final residual = 0.0198709, No Iterations 228
time step continuity errors : sum local = 4.65301e-08, global = 8.98528e-11, cumulative = 9.49775e-09
DICPCG:  Solving for p, Initial residual = 0.327802, Final residual = 9.69102e-07, No Iterations 926
time step continuity errors : sum local = 2.81001e-12, global = 6.64306e-15, cumulative = 9.49776e-09
ExecutionTime = 444.27 s  ClockTime = 444 s

Time = 1.8

Courant Number mean: 0.0147801 max: 0.274036
smoothSolver:  Solving for Ux, Initial residual = 0.000734132, Final residual = 9.23462e-06, No Iterations 16
smoothSolver:  Solving for Uy, Initial residual = 0.00349858, Final residual = 9.08802e-06, No Iterations 29
DICPCG:  Solving for p, Initial residual = 0.502491, Final residual = 0.0250438, No Iterations 151
time step continuity errors : sum local = 5.2354e-08, global = -1.08206e-12, cumulative = 9.49668e-09
DICPCG:  Solving for p, Initial residual = 0.232101, Final residual = 9.59124e-07, No Iterations 921
time step continuity errors : sum local = 4.34793e-12, global = 2.30091e-14, cumulative = 9.4967e-09
ExecutionTime = 456.62 s  ClockTime = 456 s

Time = 1.85

Courant Number mean: 0.0147783 max: 0.27333
smoothSolver:  Solving for Ux, Initial residual = 0.000802657, Final residual = 8.69005e-06, No Iterations 17
smoothSolver:  Solving for Uy, Initial residual = 0.0038983, Final residual = 8.80663e-06, No Iterations 30
DICPCG:  Solving for p, Initial residual = 0.401884, Final residual = 0.0198801, No Iterations 233
time step continuity errors : sum local = 5.65189e-08, global = 9.23022e-11, cumulative = 9.589e-09
DICPCG:  Solving for p, Initial residual = 0.514345, Final residual = 9.66254e-07, No Iterations 932
time step continuity errors : sum local = 2.21158e-12, global = 1.34981e-14, cumulative = 9.58902e-09
ExecutionTime = 470.21 s  ClockTime = 470 s

Time = 1.9

Courant Number mean: 0.0147766 max: 0.272474
smoothSolver:  Solving for Ux, Initial residual = 0.000768263, Final residual = 8.72525e-06, No Iterations 17
smoothSolver:  Solving for Uy, Initial residual = 0.00393264, Final residual = 9.44227e-06, No Iterations 30
DICPCG:  Solving for p, Initial residual = 0.525979, Final residual = 0.0259989, No Iterations 155
time step continuity errors : sum local = 6.54115e-08, global = -1.60673e-11, cumulative = 9.57295e-09
DICPCG:  Solving for p, Initial residual = 0.2499, Final residual = 9.94207e-07, No Iterations 921
time step continuity errors : sum local = 5.24321e-12, global = 2.1778e-14, cumulative = 9.57297e-09
ExecutionTime = 482.59 s  ClockTime = 482 s

Time = 1.95

Courant Number mean: 0.0147748 max: 0.271779
smoothSolver:  Solving for Ux, Initial residual = 0.00089043, Final residual = 8.61001e-06, No Iterations 18
smoothSolver:  Solving for Uy, Initial residual = 0.00447363, Final residual = 9.19638e-06, No Iterations 31
DICPCG:  Solving for p, Initial residual = 0.439494, Final residual = 0.0212024, No Iterations 234
time step continuity errors : sum local = 6.80632e-08, global = 1.36599e-10, cumulative = 9.70957e-09
DICPCG:  Solving for p, Initial residual = 0.537606, Final residual = 9.54058e-07, No Iterations 933
time step continuity errors : sum local = 2.57376e-12, global = 1.59158e-14, cumulative = 9.70959e-09
ExecutionTime = 496.12 s  ClockTime = 496 s

Time = 2

Courant Number mean: 0.0147733 max: 0.270854
smoothSolver:  Solving for Ux, Initial residual = 0.000829655, Final residual = 8.43437e-06, No Iterations 18
smoothSolver:  Solving for Uy, Initial residual = 0.00449232, Final residual = 9.86178e-06, No Iterations 31
DICPCG:  Solving for p, Initial residual = 0.555106, Final residual = 0.02773, No Iterations 198
time step continuity errors : sum local = 8.2114e-08, global = -5.22187e-11, cumulative = 9.65737e-09
DICPCG:  Solving for p, Initial residual = 0.240671, Final residual = 9.85419e-07, No Iterations 921
time step continuity errors : sum local = 6.70934e-12, global = 3.03486e-14, cumulative = 9.6574e-09
ExecutionTime = 511.79 s  ClockTime = 512 s

Time = 2.05

Courant Number mean: 0.0147716 max: 0.270161
smoothSolver:  Solving for Ux, Initial residual = 0.000940836, Final residual = 9.42977e-06, No Iterations 18
smoothSolver:  Solving for Uy, Initial residual = 0.00487505, Final residual = 9.48857e-06, No Iterations 32
DICPCG:  Solving for p, Initial residual = 0.53805, Final residual = 0.0264195, No Iterations 229
time step continuity errors : sum local = 8.51512e-08, global = 1.71829e-10, cumulative = 9.82923e-09
DICPCG:  Solving for p, Initial residual = 0.41472, Final residual = 9.83956e-07, No Iterations 929
time step continuity errors : sum local = 4.1858e-12, global = 9.61805e-15, cumulative = 9.82924e-09
ExecutionTime = 525.29 s  ClockTime = 525 s

Time = 2.1

Courant Number mean: 0.0147701 max: 0.269273
smoothSolver:  Solving for Ux, Initial residual = 0.000904723, Final residual = 9.89534e-06, No Iterations 18
smoothSolver:  Solving for Uy, Initial residual = 0.00514605, Final residual = 8.81125e-06, No Iterations 33
DICPCG:  Solving for p, Initial residual = 0.595996, Final residual = 0.0295966, No Iterations 151
time step continuity errors : sum local = 9.686e-08, global = -2.63111e-12, cumulative = 9.82661e-09
DICPCG:  Solving for p, Initial residual = 0.264411, Final residual = 9.61716e-07, No Iterations 924
time step continuity errors : sum local = 7.15161e-12, global = 2.28596e-14, cumulative = 9.82663e-09
ExecutionTime = 537.92 s  ClockTime = 538 s

Time = 2.15

Courant Number mean: 0.0147684 max: 0.268534
smoothSolver:  Solving for Ux, Initial residual = 0.00112543, Final residual = 8.59546e-06, No Iterations 20
smoothSolver:  Solving for Uy, Initial residual = 0.00596768, Final residual = 8.57708e-06, No Iterations 34
DICPCG:  Solving for p, Initial residual = 0.507446, Final residual = 0.0253156, No Iterations 233
time step continuity errors : sum local = 1.06622e-07, global = 1.71089e-10, cumulative = 9.99772e-09
DICPCG:  Solving for p, Initial residual = 0.609561, Final residual = 9.7605e-07, No Iterations 935
time step continuity errors : sum local = 3.5498e-12, global = 2.2847e-14, cumulative = 9.99774e-09
ExecutionTime = 551.57 s  ClockTime = 551 s

Time = 2.2

Courant Number mean: 0.0147671 max: 0.267539
smoothSolver:  Solving for Ux, Initial residual = 0.00102494, Final residual = 9.90663e-06, No Iterations 19
smoothSolver:  Solving for Uy, Initial residual = 0.00609527, Final residual = 9.28236e-06, No Iterations 34
DICPCG:  Solving for p, Initial residual = 0.600248, Final residual = 0.0297475, No Iterations 155
time step continuity errors : sum local = 1.23417e-07, global = -3.02559e-11, cumulative = 9.96748e-09
DICPCG:  Solving for p, Initial residual = 0.277856, Final residual = 9.81448e-07, No Iterations 924
time step continuity errors : sum local = 8.80591e-12, global = 1.62738e-14, cumulative = 9.9675e-09
ExecutionTime = 564.31 s  ClockTime = 564 s

Time = 2.25

Courant Number mean: 0.0147654 max: 0.266852
smoothSolver:  Solving for Ux, Initial residual = 0.00135021, Final residual = 8.91517e-06, No Iterations 21
smoothSolver:  Solving for Uy, Initial residual = 0.00723044, Final residual = 9.07355e-06, No Iterations 35
DICPCG:  Solving for p, Initial residual = 0.535219, Final residual = 0.0260518, No Iterations 234
time step continuity errors : sum local = 1.30112e-07, global = 2.58633e-10, cumulative = 1.02261e-08
DICPCG:  Solving for p, Initial residual = 0.606866, Final residual = 9.76686e-07, No Iterations 935
time step continuity errors : sum local = 4.44475e-12, global = 2.80204e-14, cumulative = 1.02262e-08
ExecutionTime = 577.97 s  ClockTime = 578 s

Time = 2.3

Courant Number mean: 0.0147643 max: 0.265748
smoothSolver:  Solving for Ux, Initial residual = 0.00120121, Final residual = 8.44002e-06, No Iterations 21
smoothSolver:  Solving for Uy, Initial residual = 0.00738169, Final residual = 9.79917e-06, No Iterations 35
DICPCG:  Solving for p, Initial residual = 0.616708, Final residual = 0.0308125, No Iterations 201
time step continuity errors : sum local = 1.56547e-07, global = -1.07236e-10, cumulative = 1.01189e-08
DICPCG:  Solving for p, Initial residual = 0.25841, Final residual = 9.47545e-07, No Iterations 923
time step continuity errors : sum local = 1.14828e-11, global = 3.56809e-14, cumulative = 1.0119e-08
ExecutionTime = 591.36 s  ClockTime = 591 s

Time = 2.35

Courant Number mean: 0.0147627 max: 0.265093
smoothSolver:  Solving for Ux, Initial residual = 0.00141656, Final residual = 9.91281e-06, No Iterations 21
smoothSolver:  Solving for Uy, Initial residual = 0.00820635, Final residual = 9.45809e-06, No Iterations 36
DICPCG:  Solving for p, Initial residual = 0.65922, Final residual = 0.0322304, No Iterations 229
time step continuity errors : sum local = 1.62026e-07, global = 3.42767e-10, cumulative = 1.04617e-08
DICPCG:  Solving for p, Initial residual = 0.459857, Final residual = 9.55313e-07, No Iterations 931
time step continuity errors : sum local = 7.02169e-12, global = 1.97501e-14, cumulative = 1.04617e-08
ExecutionTime = 605.18 s  ClockTime = 605 s

Time = 2.4

Courant Number mean: 0.0147615 max: 0.264096
smoothSolver:  Solving for Ux, Initial residual = 0.00134586, Final residual = 8.59259e-06, No Iterations 22
smoothSolver:  Solving for Uy, Initial residual = 0.00865118, Final residual = 8.84881e-06, No Iterations 37
DICPCG:  Solving for p, Initial residual = 0.658889, Final residual = 0.032817, No Iterations 151
time step continuity errors : sum local = 1.8635e-07, global = -3.19059e-12, cumulative = 1.04586e-08
DICPCG:  Solving for p, Initial residual = 0.283599, Final residual = 9.49292e-07, No Iterations 925
time step continuity errors : sum local = 1.26773e-11, global = 3.21784e-14, cumulative = 1.04586e-08
ExecutionTime = 618.53 s  ClockTime = 618 s

Time = 2.45

Courant Number mean: 0.01476 max: 0.263368
smoothSolver:  Solving for Ux, Initial residual = 0.00185729, Final residual = 9.27818e-06, No Iterations 23
smoothSolver:  Solving for Uy, Initial residual = 0.0104078, Final residual = 8.64013e-06, No Iterations 38
DICPCG:  Solving for p, Initial residual = 0.584573, Final residual = 0.0282005, No Iterations 234
time step continuity errors : sum local = 1.99031e-07, global = 3.2743e-10, cumulative = 1.0786e-08
DICPCG:  Solving for p, Initial residual = 0.660035, Final residual = 9.70079e-07, No Iterations 937
time step continuity errors : sum local = 6.29678e-12, global = 3.58734e-14, cumulative = 1.07861e-08
ExecutionTime = 633.28 s  ClockTime = 633 s

Time = 2.5

Courant Number mean: 0.0147593 max: 0.262169
smoothSolver:  Solving for Ux, Initial residual = 0.00167558, Final residual = 8.89197e-06, No Iterations 23
smoothSolver:  Solving for Uy, Initial residual = 0.0108842, Final residual = 9.37702e-06, No Iterations 38
DICPCG:  Solving for p, Initial residual = 0.643468, Final residual = 0.0317595, No Iterations 155
time step continuity errors : sum local = 2.38374e-07, global = -5.8366e-11, cumulative = 1.07277e-08
DICPCG:  Solving for p, Initial residual = 0.294177, Final residual = 9.63613e-07, No Iterations 925
time step continuity errors : sum local = 1.58818e-11, global = 2.27781e-14, cumulative = 1.07277e-08
ExecutionTime = 646.9 s  ClockTime = 647 s

Time = 2.55

Courant Number mean: 0.0147578 max: 0.261564
smoothSolver:  Solving for Ux, Initial residual = 0.00232605, Final residual = 9.74921e-06, No Iterations 24
smoothSolver:  Solving for Uy, Initial residual = 0.0130985, Final residual = 9.18474e-06, No Iterations 39
DICPCG:  Solving for p, Initial residual = 0.599561, Final residual = 0.0292904, No Iterations 234
time step continuity errors : sum local = 2.54093e-07, global = 5.00946e-10, cumulative = 1.12287e-08
DICPCG:  Solving for p, Initial residual = 0.648228, Final residual = 9.89505e-07, No Iterations 936
time step continuity errors : sum local = 8.22189e-12, global = 5.08224e-14, cumulative = 1.12287e-08
ExecutionTime = 661.49 s  ClockTime = 661 s

Time = 2.6

Courant Number mean: 0.0147573 max: 0.260163
smoothSolver:  Solving for Ux, Initial residual = 0.00208738, Final residual = 9.25391e-06, No Iterations 24
smoothSolver:  Solving for Uy, Initial residual = 0.0136284, Final residual = 9.91722e-06, No Iterations 39
DICPCG:  Solving for p, Initial residual = 0.648714, Final residual = 0.03221, No Iterations 202
time step continuity errors : sum local = 3.03945e-07, global = -2.12875e-10, cumulative = 1.10158e-08
DICPCG:  Solving for p, Initial residual = 0.267901, Final residual = 9.49142e-07, No Iterations 924
time step continuity errors : sum local = 2.17071e-11, global = 5.30533e-14, cumulative = 1.10159e-08
ExecutionTime = 675.61 s  ClockTime = 675 s

Time = 2.65

Courant Number mean: 0.0147559 max: 0.259633
smoothSolver:  Solving for Ux, Initial residual = 0.00243543, Final residual = 9.27492e-06, No Iterations 25
smoothSolver:  Solving for Uy, Initial residual = 0.0150946, Final residual = 9.60078e-06, No Iterations 40
DICPCG:  Solving for p, Initial residual = 0.737323, Final residual = 0.0362184, No Iterations 229
time step continuity errors : sum local = 3.18971e-07, global = 6.8049e-10, cumulative = 1.16964e-08
DICPCG:  Solving for p, Initial residual = 0.487912, Final residual = 9.32127e-07, No Iterations 932
time step continuity errors : sum local = 1.26755e-11, global = 3.95584e-14, cumulative = 1.16964e-08
ExecutionTime = 690.36 s  ClockTime = 690 s

Time = 2.7

Courant Number mean: 0.0147553 max: 0.258446
smoothSolver:  Solving for Ux, Initial residual = 0.00231662, Final residual = 9.54861e-06, No Iterations 25
smoothSolver:  Solving for Uy, Initial residual = 0.0159447, Final residual = 8.99824e-06, No Iterations 41
DICPCG:  Solving for p, Initial residual = 0.690925, Final residual = 0.0344979, No Iterations 151
time step continuity errors : sum local = 3.66548e-07, global = -5.0448e-12, cumulative = 1.16914e-08
DICPCG:  Solving for p, Initial residual = 0.293554, Final residual = 9.88108e-07, No Iterations 925
time step continuity errors : sum local = 2.50632e-11, global = 6.20992e-14, cumulative = 1.16914e-08
ExecutionTime = 704.1 s  ClockTime = 704 s

Time = 2.75

Courant Number mean: 0.014754 max: 0.257785
smoothSolver:  Solving for Ux, Initial residual = 0.00334602, Final residual = 8.72518e-06, No Iterations 27
smoothSolver:  Solving for Uy, Initial residual = 0.0193548, Final residual = 8.79853e-06, No Iterations 42
DICPCG:  Solving for p, Initial residual = 0.629067, Final residual = 0.0306662, No Iterations 234
time step continuity errors : sum local = 3.96029e-07, global = 6.40446e-10, cumulative = 1.23319e-08
DICPCG:  Solving for p, Initial residual = 0.684888, Final residual = 9.65887e-07, No Iterations 938
time step continuity errors : sum local = 1.19215e-11, global = 6.30147e-14, cumulative = 1.23319e-08
ExecutionTime = 719.08 s  ClockTime = 719 s

Time = 2.8

Courant Number mean: 0.0147543 max: 0.2562
smoothSolver:  Solving for Ux, Initial residual = 0.00310966, Final residual = 8.48045e-06, No Iterations 27
smoothSolver:  Solving for Uy, Initial residual = 0.0205568, Final residual = 9.49916e-06, No Iterations 42
DICPCG:  Solving for p, Initial residual = 0.662034, Final residual = 0.0329189, No Iterations 155
time step continuity errors : sum local = 4.73977e-07, global = -1.14942e-10, cumulative = 1.2217e-08
DICPCG:  Solving for p, Initial residual = 0.30181, Final residual = 9.32097e-07, No Iterations 926
time step continuity errors : sum local = 2.9599e-11, global = 3.18552e-14, cumulative = 1.2217e-08
ExecutionTime = 732.89 s  ClockTime = 733 s

Time = 2.85

Courant Number mean: 0.014753 max: 0.255789
smoothSolver:  Solving for Ux, Initial residual = 0.00428749, Final residual = 9.24694e-06, No Iterations 28
smoothSolver:  Solving for Uy, Initial residual = 0.0245644, Final residual = 9.334e-06, No Iterations 43
DICPCG:  Solving for p, Initial residual = 0.633322, Final residual = 0.0311886, No Iterations 234
time step continuity errors : sum local = 5.06651e-07, global = 9.91586e-10, cumulative = 1.32086e-08
DICPCG:  Solving for p, Initial residual = 0.662507, Final residual = 9.69121e-07, No Iterations 937
time step continuity errors : sum local = 1.56069e-11, global = 8.94276e-14, cumulative = 1.32087e-08
ExecutionTime = 747.67 s  ClockTime = 747 s

Time = 2.9

Courant Number mean: 0.0147538 max: 0.2538
smoothSolver:  Solving for Ux, Initial residual = 0.00394996, Final residual = 8.93356e-06, No Iterations 28
smoothSolver:  Solving for Uy, Initial residual = 0.0256535, Final residual = 9.97884e-06, No Iterations 43
DICPCG:  Solving for p, Initial residual = 0.661073, Final residual = 0.032865, No Iterations 203
time step continuity errors : sum local = 6.03255e-07, global = -4.33591e-10, cumulative = 1.27751e-08
DICPCG:  Solving for p, Initial residual = 0.271743, Final residual = 9.67551e-07, No Iterations 924
time step continuity errors : sum local = 4.32726e-11, global = 1.06715e-13, cumulative = 1.27752e-08
ExecutionTime = 761.95 s  ClockTime = 762 s

Time = 2.95

Courant Number mean: 0.0147529 max: 0.253541
smoothSolver:  Solving for Ux, Initial residual = 0.00447825, Final residual = 8.94768e-06, No Iterations 29
smoothSolver:  Solving for Uy, Initial residual = 0.0281659, Final residual = 9.71091e-06, No Iterations 44
DICPCG:  Solving for p, Initial residual = 0.779775, Final residual = 0.0382935, No Iterations 229
time step continuity errors : sum local = 6.33313e-07, global = 1.36598e-09, cumulative = 1.41412e-08
DICPCG:  Solving for p, Initial residual = 0.496519, Final residual = 9.57647e-07, No Iterations 932
time step continuity errors : sum local = 2.54279e-11, global = 8.17611e-14, cumulative = 1.41413e-08
ExecutionTime = 776.77 s  ClockTime = 776 s

Time = 3

Courant Number mean: 0.0147534 max: 0.251983
smoothSolver:  Solving for Ux, Initial residual = 0.00432483, Final residual = 9.27818e-06, No Iterations 29
smoothSolver:  Solving for Uy, Initial residual = 0.0298337, Final residual = 9.06052e-06, No Iterations 45
DICPCG:  Solving for p, Initial residual = 0.704751, Final residual = 0.0345153, No Iterations 152
time step continuity errors : sum local = 7.14065e-07, global = -6.3649e-12, cumulative = 1.41349e-08
DICPCG:  Solving for p, Initial residual = 0.296954, Final residual = 9.42487e-07, No Iterations 926
time step continuity errors : sum local = 4.69187e-11, global = 1.01944e-13, cumulative = 1.4135e-08
ExecutionTime = 793.55 s  ClockTime = 793 s

Time = 3.05

Courant Number mean: 0.0147528 max: 0.271982
smoothSolver:  Solving for Ux, Initial residual = 0.00627524, Final residual = 9.97461e-06, No Iterations 30
smoothSolver:  Solving for Uy, Initial residual = 0.036105, Final residual = 8.88587e-06, No Iterations 46
DICPCG:  Solving for p, Initial residual = 0.652314, Final residual = 0.0315683, No Iterations 234
time step continuity errors : sum local = 7.8124e-07, global = 1.26319e-09, cumulative = 1.53982e-08
DICPCG:  Solving for p, Initial residual = 0.704308, Final residual = 9.90768e-07, No Iterations 938
time step continuity errors : sum local = 2.3651e-11, global = 1.22653e-13, cumulative = 1.53983e-08
ExecutionTime = 808.54 s  ClockTime = 808 s

Time = 3.1

Courant Number mean: 0.0147553 max: 0.30343
smoothSolver:  Solving for Ux, Initial residual = 0.00596651, Final residual = 9.8549e-06, No Iterations 30
smoothSolver:  Solving for Uy, Initial residual = 0.0381595, Final residual = 9.44129e-06, No Iterations 46
DICPCG:  Solving for p, Initial residual = 0.669022, Final residual = 0.0331451, No Iterations 155
time step continuity errors : sum local = 9.40953e-07, global = -2.22266e-10, cumulative = 1.51761e-08
DICPCG:  Solving for p, Initial residual = 0.30492, Final residual = 9.42948e-07, No Iterations 926
time step continuity errors : sum local = 5.9075e-11, global = 6.74282e-14, cumulative = 1.51761e-08
ExecutionTime = 822.6 s  ClockTime = 822 s

Time = 3.15

Courant Number mean: 0.0147546 max: 0.33778
smoothSolver:  Solving for Ux, Initial residual = 0.00813207, Final residual = 8.97673e-06, No Iterations 32
smoothSolver:  Solving for Uy, Initial residual = 0.0455188, Final residual = 9.33317e-06, No Iterations 47
DICPCG:  Solving for p, Initial residual = 0.649, Final residual = 0.0320107, No Iterations 234
time step continuity errors : sum local = 1.01238e-06, global = 1.97042e-09, cumulative = 1.71466e-08
DICPCG:  Solving for p, Initial residual = 0.671233, Final residual = 9.81846e-07, No Iterations 937
time step continuity errors : sum local = 3.11618e-11, global = 1.78195e-13, cumulative = 1.71467e-08
ExecutionTime = 837.79 s  ClockTime = 838 s

Time = 3.2

Courant Number mean: 0.0147585 max: 0.37703
smoothSolver:  Solving for Ux, Initial residual = 0.00763461, Final residual = 8.8513e-06, No Iterations 32
smoothSolver:  Solving for Uy, Initial residual = 0.0467488, Final residual = 9.75162e-06, No Iterations 47
DICPCG:  Solving for p, Initial residual = 0.664896, Final residual = 0.0330328, No Iterations 204
time step continuity errors : sum local = 1.20406e-06, global = -8.81218e-10, cumulative = 1.62655e-08
DICPCG:  Solving for p, Initial residual = 0.273107, Final residual = 9.74512e-07, No Iterations 924
time step continuity errors : sum local = 8.66501e-11, global = 2.14625e-13, cumulative = 1.62657e-08
ExecutionTime = 851.83 s  ClockTime = 852 s

Time = 3.25

Courant Number mean: 0.0147585 max: 0.4185
smoothSolver:  Solving for Ux, Initial residual = 0.00849476, Final residual = 8.82302e-06, No Iterations 33
smoothSolver:  Solving for Uy, Initial residual = 0.0513266, Final residual = 9.5778e-06, No Iterations 48
DICPCG:  Solving for p, Initial residual = 0.799752, Final residual = 0.0398198, No Iterations 228
time step continuity errors : sum local = 1.28355e-06, global = 2.70897e-09, cumulative = 1.89747e-08
DICPCG:  Solving for p, Initial residual = 0.494892, Final residual = 9.51196e-07, No Iterations 932
time step continuity errors : sum local = 5.07074e-11, global = 1.7133e-13, cumulative = 1.89749e-08
ExecutionTime = 865.97 s  ClockTime = 866 s

Time = 3.3

Courant Number mean: 0.0147618 max: 0.467045
smoothSolver:  Solving for Ux, Initial residual = 0.00837142, Final residual = 9.23791e-06, No Iterations 33
smoothSolver:  Solving for Uy, Initial residual = 0.0540836, Final residual = 8.82878e-06, No Iterations 49
DICPCG:  Solving for p, Initial residual = 0.708409, Final residual = 0.0351238, No Iterations 152
time step continuity errors : sum local = 1.44858e-06, global = -8.53137e-12, cumulative = 1.89663e-08
DICPCG:  Solving for p, Initial residual = 0.298052, Final residual = 9.53771e-07, No Iterations 926
time step continuity errors : sum local = 9.48451e-11, global = 1.99043e-13, cumulative = 1.89665e-08
ExecutionTime = 879.3 s  ClockTime = 879 s

Time = 3.35

Courant Number mean: 0.0147623 max: 0.518439
smoothSolver:  Solving for Ux, Initial residual = 0.0121398, Final residual = 9.83549e-06, No Iterations 34
smoothSolver:  Solving for Uy, Initial residual = 0.0656786, Final residual = 8.71159e-06, No Iterations 50
DICPCG:  Solving for p, Initial residual = 0.658687, Final residual = 0.0319461, No Iterations 234
time step continuity errors : sum local = 1.57037e-06, global = 2.53919e-09, cumulative = 2.15057e-08
DICPCG:  Solving for p, Initial residual = 0.688286, Final residual = 9.71182e-07, No Iterations 938
time step continuity errors : sum local = 4.75904e-11, global = 2.46147e-13, cumulative = 2.1506e-08
ExecutionTime = 893.54 s  ClockTime = 893 s

Time = 3.4

Courant Number mean: 0.0147705 max: 0.577094
smoothSolver:  Solving for Ux, Initial residual = 0.0117039, Final residual = 9.89114e-06, No Iterations 34
smoothSolver:  Solving for Uy, Initial residual = 0.067351, Final residual = 8.9525e-06, No Iterations 50
DICPCG:  Solving for p, Initial residual = 0.669055, Final residual = 0.0333902, No Iterations 155
time step continuity errors : sum local = 1.90437e-06, global = -4.55394e-10, cumulative = 2.10506e-08
DICPCG:  Solving for p, Initial residual = 0.30597, Final residual = 9.46261e-07, No Iterations 926
time step continuity errors : sum local = 1.18704e-10, global = 1.35393e-13, cumulative = 2.10507e-08
ExecutionTime = 906.86 s  ClockTime = 907 s

Time = 3.45

Courant Number mean: 0.0147706 max: 0.640303
smoothSolver:  Solving for Ux, Initial residual = 0.0157964, Final residual = 8.90879e-06, No Iterations 36
smoothSolver:  Solving for Uy, Initial residual = 0.0809653, Final residual = 8.9548e-06, No Iterations 51
DICPCG:  Solving for p, Initial residual = 0.654144, Final residual = 0.0323808, No Iterations 234
time step continuity errors : sum local = 2.04114e-06, global = 3.99415e-09, cumulative = 2.50449e-08
DICPCG:  Solving for p, Initial residual = 0.665342, Final residual = 9.75011e-07, No Iterations 937
time step continuity errors : sum local = 6.27262e-11, global = 3.60559e-13, cumulative = 2.50452e-08
ExecutionTime = 921.14 s  ClockTime = 921 s

Time = 3.5

Courant Number mean: 0.0147835 max: 0.712687
smoothSolver:  Solving for Ux, Initial residual = 0.0150243, Final residual = 8.959e-06, No Iterations 36
smoothSolver:  Solving for Uy, Initial residual = 0.0795696, Final residual = 8.95439e-06, No Iterations 51
DICPCG:  Solving for p, Initial residual = 0.664753, Final residual = 0.033122, No Iterations 204
time step continuity errors : sum local = 2.42755e-06, global = -1.78593e-09, cumulative = 2.32593e-08
DICPCG:  Solving for p, Initial residual = 0.273472, Final residual = 9.75327e-07, No Iterations 924
time step continuity errors : sum local = 1.74094e-10, global = 4.46992e-13, cumulative = 2.32597e-08
ExecutionTime = 934.92 s  ClockTime = 935 s

Time = 3.55

Courant Number mean: 0.014784 max: 0.787717
smoothSolver:  Solving for Ux, Initial residual = 0.0165371, Final residual = 8.88788e-06, No Iterations 37
smoothSolver:  Solving for Uy, Initial residual = 0.0883929, Final residual = 8.94347e-06, No Iterations 52
DICPCG:  Solving for p, Initial residual = 0.806814, Final residual = 0.0403067, No Iterations 228
time step continuity errors : sum local = 2.58894e-06, global = 5.46222e-09, cumulative = 2.8722e-08
DICPCG:  Solving for p, Initial residual = 0.496833, Final residual = 9.54447e-07, No Iterations 932
time step continuity errors : sum local = 1.01891e-10, global = 3.47412e-13, cumulative = 2.87223e-08
ExecutionTime = 949.07 s  ClockTime = 949 s

Time = 3.6

Courant Number mean: 0.0147948 max: 0.875603
smoothSolver:  Solving for Ux, Initial residual = 0.0164354, Final residual = 9.37237e-06, No Iterations 37
smoothSolver:  Solving for Uy, Initial residual = 0.0909342, Final residual = 9.41656e-06, No Iterations 52
DICPCG:  Solving for p, Initial residual = 0.709114, Final residual = 0.0351975, No Iterations 152
time step continuity errors : sum local = 2.91569e-06, global = -1.55241e-11, cumulative = 2.87068e-08
DICPCG:  Solving for p, Initial residual = 0.298624, Final residual = 9.46152e-07, No Iterations 926
time step continuity errors : sum local = 1.88815e-10, global = 3.92711e-13, cumulative = 2.87072e-08
ExecutionTime = 962.35 s  ClockTime = 962 s

Time = 3.65

Courant Number mean: 0.0147964 max: 0.966627
smoothSolver:  Solving for Ux, Initial residual = 0.0236278, Final residual = 9.84028e-06, No Iterations 38
smoothSolver:  Solving for Uy, Initial residual = 0.111075, Final residual = 9.37488e-06, No Iterations 53
DICPCG:  Solving for p, Initial residual = 0.661941, Final residual = 0.0325624, No Iterations 234
time step continuity errors : sum local = 3.20262e-06, global = 5.10726e-09, cumulative = 3.38144e-08
DICPCG:  Solving for p, Initial residual = 0.687359, Final residual = 9.72157e-07, No Iterations 938
time step continuity errors : sum local = 9.59778e-11, global = 4.9879e-13, cumulative = 3.38149e-08
ExecutionTime = 976.7 s  ClockTime = 976 s

Time = 3.7

Courant Number mean: 0.0148221 max: 1.07064
smoothSolver:  Solving for Ux, Initial residual = 0.0231611, Final residual = 8.59279e-06, No Iterations 39
smoothSolver:  Solving for Uy, Initial residual = 0.107892, Final residual = 9.12028e-06, No Iterations 53
DICPCG:  Solving for p, Initial residual = 0.668852, Final residual = 0.0334035, No Iterations 156
time step continuity errors : sum local = 3.83236e-06, global = -9.31883e-10, cumulative = 3.2883e-08
DICPCG:  Solving for p, Initial residual = 0.305541, Final residual = 9.40846e-07, No Iterations 926
time step continuity errors : sum local = 2.3756e-10, global = 2.80966e-13, cumulative = 3.28833e-08
ExecutionTime = 990.15 s  ClockTime = 990 s

Time = 3.75

Courant Number mean: 0.0148204 max: 1.18018
smoothSolver:  Solving for Ux, Initial residual = 0.0308185, Final residual = 8.96445e-06, No Iterations 40
smoothSolver:  Solving for Uy, Initial residual = 0.131805, Final residual = 9.29614e-06, No Iterations 54
DICPCG:  Solving for p, Initial residual = 0.65894, Final residual = 0.0325912, No Iterations 234
time step continuity errors : sum local = 4.1008e-06, global = 8.03166e-09, cumulative = 4.0915e-08
DICPCG:  Solving for p, Initial residual = 0.673523, Final residual = 9.82454e-07, No Iterations 937
time step continuity errors : sum local = 1.25539e-10, global = 7.21409e-13, cumulative = 4.09157e-08
ExecutionTime = 1004.56 s  ClockTime = 1004 s

Time = 3.8

Courant Number mean: 0.0148603 max: 1.30536
smoothSolver:  Solving for Ux, Initial residual = 0.0298219, Final residual = 9.24011e-06, No Iterations 40
smoothSolver:  Solving for Uy, Initial residual = 0.120577, Final residual = 8.66346e-06, No Iterations 54
DICPCG:  Solving for p, Initial residual = 0.664926, Final residual = 0.0330866, No Iterations 205
time step continuity errors : sum local = 4.86664e-06, global = -3.60242e-09, cumulative = 3.73133e-08
DICPCG:  Solving for p, Initial residual = 0.27311, Final residual = 9.77793e-07, No Iterations 924
time step continuity errors : sum local = 3.50751e-10, global = 8.77427e-13, cumulative = 3.73142e-08
ExecutionTime = 1018.49 s  ClockTime = 1018 s

Time = 3.85

Courant Number mean: 0.0148578 max: 1.43237
smoothSolver:  Solving for Ux, Initial residual = 0.0323127, Final residual = 9.07342e-06, No Iterations 41
smoothSolver:  Solving for Uy, Initial residual = 0.136687, Final residual = 8.88235e-06, No Iterations 55
DICPCG:  Solving for p, Initial residual = 0.813049, Final residual = 0.040311, No Iterations 228
time step continuity errors : sum local = 5.14941e-06, global = 1.10165e-08, cumulative = 4.83307e-08
DICPCG:  Solving for p, Initial residual = 0.490561, Final residual = 9.49685e-07, No Iterations 932
time step continuity errors : sum local = 2.05703e-10, global = 7.39801e-13, cumulative = 4.83314e-08
ExecutionTime = 1032.76 s  ClockTime = 1032 s

Time = 3.9

Courant Number mean: 0.0148886 max: 1.58059
smoothSolver:  Solving for Ux, Initial residual = 0.0324383, Final residual = 9.65056e-06, No Iterations 41
smoothSolver:  Solving for Uy, Initial residual = 0.135582, Final residual = 9.01809e-06, No Iterations 55
DICPCG:  Solving for p, Initial residual = 0.709636, Final residual = 0.0351714, No Iterations 152
time step continuity errors : sum local = 5.81854e-06, global = -7.81672e-12, cumulative = 4.83236e-08
DICPCG:  Solving for p, Initial residual = 0.298423, Final residual = 9.75496e-07, No Iterations 926
time step continuity errors : sum local = 3.8936e-10, global = 8.19002e-13, cumulative = 4.83244e-08
ExecutionTime = 1046.32 s  ClockTime = 1046 s

Time = 3.95

Courant Number mean: 0.0148885 max: 1.72966
smoothSolver:  Solving for Ux, Initial residual = 0.0460819, Final residual = 9.93265e-06, No Iterations 42
smoothSolver:  Solving for Uy, Initial residual = 0.167879, Final residual = 9.10148e-06, No Iterations 56
DICPCG:  Solving for p, Initial residual = 0.662616, Final residual = 0.032393, No Iterations 234
time step continuity errors : sum local = 6.34993e-06, global = 1.01582e-08, cumulative = 5.84826e-08
DICPCG:  Solving for p, Initial residual = 0.683699, Final residual = 9.66649e-07, No Iterations 938
time step continuity errors : sum local = 1.91371e-10, global = 9.92641e-13, cumulative = 5.84836e-08
ExecutionTime = 1060.93 s  ClockTime = 1061 s

Time = 4

Courant Number mean: 0.0149604 max: 1.90341
smoothSolver:  Solving for Ux, Initial residual = 0.0462364, Final residual = 8.93555e-06, No Iterations 43
smoothSolver:  Solving for Uy, Initial residual = 0.149457, Final residual = 9.48349e-06, No Iterations 55
DICPCG:  Solving for p, Initial residual = 0.667234, Final residual = 0.0333365, No Iterations 159
time step continuity errors : sum local = 7.62231e-06, global = -1.97385e-09, cumulative = 5.65097e-08
DICPCG:  Solving for p, Initial residual = 0.302698, Final residual = 9.48508e-07, No Iterations 926
time step continuity errors : sum local = 4.79769e-10, global = 5.74597e-13, cumulative = 5.65103e-08
ExecutionTime = 1077.28 s  ClockTime = 1077 s

Time = 4.05

Courant Number mean: 0.0149527 max: 2.07834
smoothSolver:  Solving for Ux, Initial residual = 0.0598998, Final residual = 9.06818e-06, No Iterations 44
smoothSolver:  Solving for Uy, Initial residual = 0.18866, Final residual = 8.56054e-06, No Iterations 57
DICPCG:  Solving for p, Initial residual = 0.665745, Final residual = 0.0326985, No Iterations 234
time step continuity errors : sum local = 8.05217e-06, global = 1.599e-08, cumulative = 7.25003e-08
DICPCG:  Solving for p, Initial residual = 0.696468, Final residual = 9.67365e-07, No Iterations 938
time step continuity errors : sum local = 2.36001e-10, global = 1.18857e-12, cumulative = 7.25015e-08
ExecutionTime = 1092.01 s  ClockTime = 1092 s

Time = 4.1

Courant Number mean: 0.0150544 max: 2.33675
smoothSolver:  Solving for Ux, Initial residual = 0.0592749, Final residual = 9.61531e-06, No Iterations 44
smoothSolver:  Solving for Uy, Initial residual = 0.155703, Final residual = 9.83199e-06, No Iterations 55
DICPCG:  Solving for p, Initial residual = 0.664228, Final residual = 0.0330766, No Iterations 204
time step continuity errors : sum local = 9.55469e-06, global = -6.51111e-09, cumulative = 6.59904e-08
DICPCG:  Solving for p, Initial residual = 0.272656, Final residual = 9.79767e-07, No Iterations 924
time step continuity errors : sum local = 6.90344e-10, global = 1.76218e-12, cumulative = 6.59921e-08
ExecutionTime = 1106.07 s  ClockTime = 1106 s

Time = 4.15

Courant Number mean: 0.0150466 max: 2.84184
smoothSolver:  Solving for Ux, Initial residual = 0.0635942, Final residual = 9.30396e-06, No Iterations 45
smoothSolver:  Solving for Uy, Initial residual = 0.183606, Final residual = 8.92864e-06, No Iterations 57
DICPCG:  Solving for p, Initial residual = 0.80827, Final residual = 0.0396881, No Iterations 229
time step continuity errors : sum local = 9.91181e-06, global = 2.16944e-08, cumulative = 8.76865e-08
DICPCG:  Solving for p, Initial residual = 0.500891, Final residual = 9.84785e-07, No Iterations 932
time step continuity errors : sum local = 4.05415e-10, global = 1.37459e-12, cumulative = 8.76879e-08
ExecutionTime = 1120.58 s  ClockTime = 1120 s

Time = 4.2

Courant Number mean: 0.015124 max: 3.51375
smoothSolver:  Solving for Ux, Initial residual = 0.0639423, Final residual = 9.94456e-06, No Iterations 45
smoothSolver:  Solving for Uy, Initial residual = 0.17018, Final residual = 9.8521e-06, No Iterations 56
DICPCG:  Solving for p, Initial residual = 0.704653, Final residual = 0.0348603, No Iterations 153
time step continuity errors : sum local = 1.11076e-05, global = -6.56097e-11, cumulative = 8.76223e-08
DICPCG:  Solving for p, Initial residual = 0.295943, Final residual = 9.64756e-07, No Iterations 926
time step continuity errors : sum local = 7.41055e-10, global = 1.82713e-12, cumulative = 8.76241e-08
ExecutionTime = 1134.17 s  ClockTime = 1134 s

Time = 4.25

Courant Number mean: 0.0151266 max: 4.43096
smoothSolver:  Solving for Ux, Initial residual = 0.0879054, Final residual = 9.92427e-06, No Iterations 46
smoothSolver:  Solving for Uy, Initial residual = 0.215436, Final residual = 8.54662e-06, No Iterations 58
DICPCG:  Solving for p, Initial residual = 0.658887, Final residual = 0.0329337, No Iterations 234
time step continuity errors : sum local = 1.21528e-05, global = 1.9806e-08, cumulative = 1.0743e-07
DICPCG:  Solving for p, Initial residual = 0.674709, Final residual = 9.75917e-07, No Iterations 938
time step continuity errors : sum local = 3.65931e-10, global = 1.86546e-12, cumulative = 1.07432e-07
ExecutionTime = 1148.87 s  ClockTime = 1149 s

Time = 4.3

Courant Number mean: 0.0153021 max: 5.66671
smoothSolver:  Solving for Ux, Initial residual = 0.0911419, Final residual = 9.26032e-06, No Iterations 47
smoothSolver:  Solving for Uy, Initial residual = 0.172873, Final residual = 9.07376e-06, No Iterations 56
DICPCG:  Solving for p, Initial residual = 0.656429, Final residual = 0.0324426, No Iterations 207
time step continuity errors : sum local = 1.37151e-05, global = -1.14961e-08, cumulative = 9.59359e-08
DICPCG:  Solving for p, Initial residual = 0.268052, Final residual = 9.8228e-07, No Iterations 924
time step continuity errors : sum local = 1.01544e-09, global = 2.68671e-12, cumulative = 9.59386e-08
ExecutionTime = 1163.06 s  ClockTime = 1163 s

Time = 4.35

Courant Number mean: 0.0153093 max: 7.27182
smoothSolver:  Solving for Ux, Initial residual = 0.0943694, Final residual = 8.56996e-06, No Iterations 48
smoothSolver:  Solving for Uy, Initial residual = 0.199968, Final residual = 8.87301e-06, No Iterations 57
DICPCG:  Solving for p, Initial residual = 0.804262, Final residual = 0.0400325, No Iterations 229
time step continuity errors : sum local = 1.39267e-05, global = 3.30367e-08, cumulative = 1.28975e-07
DICPCG:  Solving for p, Initial residual = 0.48392, Final residual = 9.80352e-07, No Iterations 932
time step continuity errors : sum local = 5.75851e-10, global = 1.84321e-12, cumulative = 1.28977e-07
ExecutionTime = 1177.52 s  ClockTime = 1177 s

Time = 4.4

Courant Number mean: 0.0154501 max: 10.2294
smoothSolver:  Solving for Ux, Initial residual = 0.0949775, Final residual = 8.73375e-06, No Iterations 48
smoothSolver:  Solving for Uy, Initial residual = 0.177615, Final residual = 8.58839e-06, No Iterations 56
DICPCG:  Solving for p, Initial residual = 0.685715, Final residual = 0.0340685, No Iterations 207
time step continuity errors : sum local = 1.45297e-05, global = 5.95317e-10, cumulative = 1.29572e-07
DICPCG:  Solving for p, Initial residual = 0.25599, Final residual = 9.72163e-07, No Iterations 924
time step continuity errors : sum local = 1.11429e-09, global = 4.00985e-12, cumulative = 1.29576e-07
ExecutionTime = 1191.81 s  ClockTime = 1192 s

Time = 4.45

Courant Number mean: 0.0154853 max: 14.145
smoothSolver:  Solving for Ux, Initial residual = 0.105398, Final residual = 8.86931e-06, No Iterations 48
smoothSolver:  Solving for Uy, Initial residual = 0.197747, Final residual = 8.78615e-06, No Iterations 56
DICPCG:  Solving for p, Initial residual = 0.794253, Final residual = 0.0390291, No Iterations 230
time step continuity errors : sum local = 1.4096e-05, global = 3.30207e-08, cumulative = 1.62597e-07
DICPCG:  Solving for p, Initial residual = 0.496921, Final residual = 9.94506e-07, No Iterations 932
time step continuity errors : sum local = 5.80187e-10, global = 1.9835e-12, cumulative = 1.62599e-07
ExecutionTime = 1206.47 s  ClockTime = 1206 s

Time = 4.5

Courant Number mean: 0.0156343 max: 17.9629
smoothSolver:  Solving for Ux, Initial residual = 0.103834, Final residual = 9.69926e-06, No Iterations 47
smoothSolver:  Solving for Uy, Initial residual = 0.170235, Final residual = 9.48039e-06, No Iterations 54
DICPCG:  Solving for p, Initial residual = 0.66765, Final residual = 0.0333793, No Iterations 218
time step continuity errors : sum local = 1.41897e-05, global = -4.50106e-11, cumulative = 1.62554e-07
DICPCG:  Solving for p, Initial residual = 0.246258, Final residual = 9.97433e-07, No Iterations 923
time step continuity errors : sum local = 1.14755e-09, global = 4.88276e-12, cumulative = 1.62559e-07
ExecutionTime = 1220.65 s  ClockTime = 1220 s

Time = 4.55

Courant Number mean: 0.015654 max: 20.9618
smoothSolver:  Solving for Ux, Initial residual = 0.106415, Final residual = 9.25559e-06, No Iterations 47
smoothSolver:  Solving for Uy, Initial residual = 0.173898, Final residual = 9.15654e-06, No Iterations 54
DICPCG:  Solving for p, Initial residual = 0.821729, Final residual = 0.0405168, No Iterations 228
time step continuity errors : sum local = 1.30683e-05, global = 3.43451e-08, cumulative = 1.96904e-07
DICPCG:  Solving for p, Initial residual = 0.421047, Final residual = 9.96408e-07, No Iterations 930
time step continuity errors : sum local = 6.28823e-10, global = 2.08631e-12, cumulative = 1.96906e-07
ExecutionTime = 1235.09 s  ClockTime = 1235 s

Time = 4.6

Courant Number mean: 0.0157528 max: 22.9357
smoothSolver:  Solving for Ux, Initial residual = 0.105284, Final residual = 8.64907e-06, No Iterations 47
smoothSolver:  Solving for Uy, Initial residual = 0.150561, Final residual = 8.70095e-06, No Iterations 53
DICPCG:  Solving for p, Initial residual = 0.659858, Final residual = 0.0327553, No Iterations 221
time step continuity errors : sum local = 1.24736e-05, global = 2.28014e-09, cumulative = 1.99186e-07
DICPCG:  Solving for p, Initial residual = 0.238689, Final residual = 9.42744e-07, No Iterations 923
time step continuity errors : sum local = 9.9103e-10, global = 3.63288e-12, cumulative = 1.9919e-07
ExecutionTime = 1249.34 s  ClockTime = 1249 s

Time = 4.65

Courant Number mean: 0.0157482 max: 24.1303
smoothSolver:  Solving for Ux, Initial residual = 0.106326, Final residual = 9.8023e-06, No Iterations 46
smoothSolver:  Solving for Uy, Initial residual = 0.146481, Final residual = 9.76152e-06, No Iterations 52
DICPCG:  Solving for p, Initial residual = 0.830658, Final residual = 0.0412831, No Iterations 226
time step continuity errors : sum local = 1.15211e-05, global = 3.10354e-08, cumulative = 2.30225e-07
DICPCG:  Solving for p, Initial residual = 0.395895, Final residual = 9.58577e-07, No Iterations 930
time step continuity errors : sum local = 5.60173e-10, global = 2.33699e-12, cumulative = 2.30228e-07
ExecutionTime = 1263.63 s  ClockTime = 1263 s

Time = 4.7

Courant Number mean: 0.0158124 max: 24.6944
smoothSolver:  Solving for Ux, Initial residual = 0.105977, Final residual = 9.43421e-06, No Iterations 46
smoothSolver:  Solving for Uy, Initial residual = 0.128241, Final residual = 9.66567e-06, No Iterations 51
DICPCG:  Solving for p, Initial residual = 0.648802, Final residual = 0.0319539, No Iterations 223
time step continuity errors : sum local = 1.06889e-05, global = 2.76534e-09, cumulative = 2.32993e-07
DICPCG:  Solving for p, Initial residual = 0.232428, Final residual = 9.85483e-07, No Iterations 922
time step continuity errors : sum local = 9.16123e-10, global = 3.0636e-12, cumulative = 2.32996e-07
ExecutionTime = 1277.86 s  ClockTime = 1278 s

Time = 4.75

Courant Number mean: 0.0157978 max: 24.8563
smoothSolver:  Solving for Ux, Initial residual = 0.107129, Final residual = 9.25044e-06, No Iterations 46
smoothSolver:  Solving for Uy, Initial residual = 0.121642, Final residual = 9.19336e-06, No Iterations 51
DICPCG:  Solving for p, Initial residual = 0.835201, Final residual = 0.0412697, No Iterations 224
time step continuity errors : sum local = 9.90162e-06, global = 2.7097e-08, cumulative = 2.60093e-07
DICPCG:  Solving for p, Initial residual = 0.382886, Final residual = 9.48673e-07, No Iterations 930
time step continuity errors : sum local = 5.01183e-10, global = 2.34515e-12, cumulative = 2.60095e-07
ExecutionTime = 1292.12 s  ClockTime = 1292 s

Time = 4.8

Courant Number mean: 0.0158415 max: 24.7001
smoothSolver:  Solving for Ux, Initial residual = 0.109299, Final residual = 9.26426e-06, No Iterations 46
smoothSolver:  Solving for Uy, Initial residual = 0.108666, Final residual = 9.45194e-06, No Iterations 50
DICPCG:  Solving for p, Initial residual = 0.637178, Final residual = 0.0318548, No Iterations 223
time step continuity errors : sum local = 9.29303e-06, global = 2.79512e-09, cumulative = 2.62891e-07
DICPCG:  Solving for p, Initial residual = 0.229221, Final residual = 9.9631e-07, No Iterations 922
time step continuity errors : sum local = 8.14921e-10, global = 2.10811e-12, cumulative = 2.62893e-07
ExecutionTime = 1306.31 s  ClockTime = 1306 s

Time = 4.85

Courant Number mean: 0.0158233 max: 24.3399
smoothSolver:  Solving for Ux, Initial residual = 0.112621, Final residual = 9.33596e-06, No Iterations 46
smoothSolver:  Solving for Uy, Initial residual = 0.102526, Final residual = 9.03194e-06, No Iterations 50
DICPCG:  Solving for p, Initial residual = 0.83183, Final residual = 0.0410061, No Iterations 224
time step continuity errors : sum local = 8.52585e-06, global = 2.40978e-08, cumulative = 2.86991e-07
DICPCG:  Solving for p, Initial residual = 0.377803, Final residual = 9.26704e-07, No Iterations 930
time step continuity errors : sum local = 4.28004e-10, global = 2.14656e-12, cumulative = 2.86993e-07
ExecutionTime = 1320.39 s  ClockTime = 1320 s

Time = 4.9

Courant Number mean: 0.015854 max: 23.8423
smoothSolver:  Solving for Ux, Initial residual = 0.11652, Final residual = 9.67635e-06, No Iterations 46
smoothSolver:  Solving for Uy, Initial residual = 0.0924205, Final residual = 9.52521e-06, No Iterations 49
DICPCG:  Solving for p, Initial residual = 0.631547, Final residual = 0.0309493, No Iterations 224
time step continuity errors : sum local = 7.90268e-06, global = 2.54016e-09, cumulative = 2.89533e-07
DICPCG:  Solving for p, Initial residual = 0.229084, Final residual = 9.92468e-07, No Iterations 922
time step continuity errors : sum local = 7.06673e-10, global = 1.58941e-12, cumulative = 2.89534e-07
ExecutionTime = 1334.53 s  ClockTime = 1334 s

Time = 4.95

Courant Number mean: 0.0158341 max: 23.2683
smoothSolver:  Solving for Ux, Initial residual = 0.122124, Final residual = 8.47492e-06, No Iterations 47
smoothSolver:  Solving for Uy, Initial residual = 0.0868292, Final residual = 9.16038e-06, No Iterations 49
DICPCG:  Solving for p, Initial residual = 0.832381, Final residual = 0.040828, No Iterations 224
time step continuity errors : sum local = 7.37168e-06, global = 2.08687e-08, cumulative = 3.10403e-07
DICPCG:  Solving for p, Initial residual = 0.372282, Final residual = 9.53426e-07, No Iterations 930
time step continuity errors : sum local = 3.89837e-10, global = 1.97213e-12, cumulative = 3.10405e-07
ExecutionTime = 1348.73 s  ClockTime = 1348 s

Time = 5

Courant Number mean: 0.0158543 max: 22.6469
smoothSolver:  Solving for Ux, Initial residual = 0.128398, Final residual = 9.03908e-06, No Iterations 47
smoothSolver:  Solving for Uy, Initial residual = 0.0794622, Final residual = 9.86689e-06, No Iterations 48
DICPCG:  Solving for p, Initial residual = 0.628145, Final residual = 0.0309336, No Iterations 224
time step continuity errors : sum local = 6.96201e-06, global = 2.40609e-09, cumulative = 3.12811e-07
DICPCG:  Solving for p, Initial residual = 0.229036, Final residual = 9.96178e-07, No Iterations 922
time step continuity errors : sum local = 6.23152e-10, global = 1.28744e-12, cumulative = 3.12812e-07
ExecutionTime = 1365.55 s  ClockTime = 1365 s

Time = 5.05

Courant Number mean: 0.0158332 max: 22.2447
smoothSolver:  Solving for Ux, Initial residual = 0.136969, Final residual = 9.5877e-06, No Iterations 47
smoothSolver:  Solving for Uy, Initial residual = 0.0750847, Final residual = 9.55934e-06, No Iterations 48
DICPCG:  Solving for p, Initial residual = 0.832583, Final residual = 0.0408057, No Iterations 224
time step continuity errors : sum local = 6.53386e-06, global = 1.82099e-08, cumulative = 3.31022e-07
DICPCG:  Solving for p, Initial residual = 0.371481, Final residual = 9.53476e-07, No Iterations 930
time step continuity errors : sum local = 3.46888e-10, global = 1.77731e-12, cumulative = 3.31024e-07
ExecutionTime = 1379.76 s  ClockTime = 1380 s

Time = 5.1

Courant Number mean: 0.0158458 max: 22.0685
smoothSolver:  Solving for Ux, Initial residual = 0.143986, Final residual = 8.72246e-06, No Iterations 48
smoothSolver:  Solving for Uy, Initial residual = 0.0696251, Final residual = 8.86717e-06, No Iterations 48
DICPCG:  Solving for p, Initial residual = 0.626917, Final residual = 0.0313231, No Iterations 223
time step continuity errors : sum local = 6.31986e-06, global = 2.20448e-09, cumulative = 3.33229e-07
DICPCG:  Solving for p, Initial residual = 0.229799, Final residual = 9.95801e-07, No Iterations 922
time step continuity errors : sum local = 5.5544e-10, global = 1.14062e-12, cumulative = 3.3323e-07
ExecutionTime = 1394.08 s  ClockTime = 1394 s

Time = 5.15

Courant Number mean: 0.0158244 max: 21.8137
smoothSolver:  Solving for Ux, Initial residual = 0.153203, Final residual = 9.26013e-06, No Iterations 48
smoothSolver:  Solving for Uy, Initial residual = 0.0665162, Final residual = 8.6631e-06, No Iterations 48
DICPCG:  Solving for p, Initial residual = 0.831166, Final residual = 0.0407104, No Iterations 224
time step continuity errors : sum local = 5.92112e-06, global = 1.6203e-08, cumulative = 3.49433e-07
DICPCG:  Solving for p, Initial residual = 0.374982, Final residual = 9.3989e-07, No Iterations 930
time step continuity errors : sum local = 3.06455e-10, global = 1.55719e-12, cumulative = 3.49434e-07
ExecutionTime = 1408.38 s  ClockTime = 1408 s

Time = 5.2

Courant Number mean: 0.0158317 max: 21.4962
smoothSolver:  Solving for Ux, Initial residual = 0.139907, Final residual = 8.7077e-06, No Iterations 48
smoothSolver:  Solving for Uy, Initial residual = 0.0623593, Final residual = 9.61272e-06, No Iterations 47
DICPCG:  Solving for p, Initial residual = 0.627982, Final residual = 0.0310995, No Iterations 223
time step continuity errors : sum local = 5.73385e-06, global = 1.96763e-09, cumulative = 3.51402e-07
DICPCG:  Solving for p, Initial residual = 0.231448, Final residual = 9.4532e-07, No Iterations 923
time step continuity errors : sum local = 4.78812e-10, global = 8.30003e-13, cumulative = 3.51403e-07
ExecutionTime = 1422.6 s  ClockTime = 1422 s

Time = 5.25

Courant Number mean: 0.0158106 max: 21.1205
smoothSolver:  Solving for Ux, Initial residual = 0.134032, Final residual = 9.89211e-06, No Iterations 47
smoothSolver:  Solving for Uy, Initial residual = 0.0599483, Final residual = 9.47242e-06, No Iterations 47
DICPCG:  Solving for p, Initial residual = 0.83313, Final residual = 0.0407498, No Iterations 224
time step continuity errors : sum local = 5.456e-06, global = 1.46276e-08, cumulative = 3.6603e-07
DICPCG:  Solving for p, Initial residual = 0.375563, Final residual = 9.57009e-07, No Iterations 930
time step continuity errors : sum local = 2.87765e-10, global = 1.44188e-12, cumulative = 3.66032e-07
ExecutionTime = 1436.86 s  ClockTime = 1437 s

Time = 5.3

Courant Number mean: 0.0158142 max: 20.703
smoothSolver:  Solving for Ux, Initial residual = 0.116931, Final residual = 8.91171e-06, No Iterations 47
smoothSolver:  Solving for Uy, Initial residual = 0.0569178, Final residual = 9.0227e-06, No Iterations 47
DICPCG:  Solving for p, Initial residual = 0.631081, Final residual = 0.0312361, No Iterations 223
time step continuity errors : sum local = 5.3372e-06, global = 1.85573e-09, cumulative = 3.67888e-07
DICPCG:  Solving for p, Initial residual = 0.232899, Final residual = 9.50583e-07, No Iterations 923
time step continuity errors : sum local = 4.46081e-10, global = 7.86558e-13, cumulative = 3.67888e-07
ExecutionTime = 1450.98 s  ClockTime = 1451 s

Time = 5.35

Courant Number mean: 0.0157941 max: 20.2414
smoothSolver:  Solving for Ux, Initial residual = 0.112417, Final residual = 8.59669e-06, No Iterations 47
smoothSolver:  Solving for Uy, Initial residual = 0.0551724, Final residual = 8.96908e-06, No Iterations 47
DICPCG:  Solving for p, Initial residual = 0.836496, Final residual = 0.0415537, No Iterations 223
time step continuity errors : sum local = 5.20892e-06, global = 1.32545e-08, cumulative = 3.81143e-07
DICPCG:  Solving for p, Initial residual = 0.376494, Final residual = 9.5712e-07, No Iterations 930
time step continuity errors : sum local = 2.71412e-10, global = 1.35615e-12, cumulative = 3.81144e-07
ExecutionTime = 1464.95 s  ClockTime = 1465 s

Time = 5.4

Courant Number mean: 0.0157956 max: 19.7458
smoothSolver:  Solving for Ux, Initial residual = 0.0989304, Final residual = 9.23357e-06, No Iterations 46
smoothSolver:  Solving for Uy, Initial residual = 0.0531061, Final residual = 8.6457e-06, No Iterations 47
DICPCG:  Solving for p, Initial residual = 0.632978, Final residual = 0.0309702, No Iterations 224
time step continuity errors : sum local = 4.99962e-06, global = 1.76135e-09, cumulative = 3.82906e-07
DICPCG:  Solving for p, Initial residual = 0.232089, Final residual = 9.8678e-07, No Iterations 922
time step continuity errors : sum local = 4.41249e-10, global = 9.19385e-13, cumulative = 3.82906e-07
ExecutionTime = 1479.15 s  ClockTime = 1479 s

Time = 5.45

Courant Number mean: 0.0157765 max: 19.2139
smoothSolver:  Solving for Ux, Initial residual = 0.0957929, Final residual = 8.99444e-06, No Iterations 46
smoothSolver:  Solving for Uy, Initial residual = 0.0516138, Final residual = 8.66513e-06, No Iterations 47
DICPCG:  Solving for p, Initial residual = 0.842298, Final residual = 0.0416651, No Iterations 222
time step continuity errors : sum local = 4.9461e-06, global = 1.24239e-08, cumulative = 3.9533e-07
DICPCG:  Solving for p, Initial residual = 0.367888, Final residual = 9.52139e-07, No Iterations 930
time step continuity errors : sum local = 2.61621e-10, global = 1.30557e-12, cumulative = 3.95332e-07
ExecutionTime = 1493.27 s  ClockTime = 1493 s

Time = 5.5

Courant Number mean: 0.0157761 max: 18.6436
smoothSolver:  Solving for Ux, Initial residual = 0.0858385, Final residual = 9.84157e-06, No Iterations 45
[...]
DICPCG:  Solving for p, Initial residual = 0.854555, Final residual = 0.0423484, No Iterations 220
time step continuity errors : sum local = 9.65601e-06, global = 2.32338e-08, cumulative = 6.86952e-06
DICPCG:  Solving for p, Initial residual = 0.35429, Final residual = 9.3607e-07, No Iterations 929
time step continuity errors : sum local = 5.15836e-10, global = 2.98326e-12, cumulative = 6.86953e-06
ExecutionTime = 10849.9 s  ClockTime = 10850 s

Time = 38.7

Courant Number mean: 0.0169443 max: 29.9344
smoothSolver:  Solving for Ux, Initial residual = 0.0185084, Final residual = 9.92945e-06, No Iterations 35
smoothSolver:  Solving for Uy, Initial residual = 0.0334827, Final residual = 9.90639e-06, No Iterations 43
DICPCG:  Solving for p, Initial residual = 0.649794, Final residual = 0.032123, No Iterations 225
time step continuity errors : sum local = 9.55754e-06, global = 3.45021e-09, cumulative = 6.87298e-06
DICPCG:  Solving for p, Initial residual = 0.222745, Final residual = 9.82766e-07, No Iterations 921
time step continuity errors : sum local = 8.55923e-10, global = 1.65927e-12, cumulative = 6.87298e-06
ExecutionTime = 10863.7 s  ClockTime = 10864 s

Time = 38.75

Courant Number mean: 0.0169544 max: 29.6329
smoothSolver:  Solving for Ux, Initial residual = 0.0185742, Final residual = 9.69255e-06, No Iterations 35
smoothSolver:  Solving for Uy, Initial residual = 0.0332606, Final residual = 9.86721e-06, No Iterations 43
DICPCG:  Solving for p, Initial residual = 0.852578, Final residual = 0.0426263, No Iterations 220
time step continuity errors : sum local = 9.63674e-06, global = 2.31566e-08, cumulative = 6.89614e-06
DICPCG:  Solving for p, Initial residual = 0.353755, Final residual = 9.54111e-07, No Iterations 929
time step continuity errors : sum local = 5.20707e-10, global = 2.95981e-12, cumulative = 6.89614e-06
ExecutionTime = 10877.5 s  ClockTime = 10878 s

Time = 38.8

Courant Number mean: 0.0169624 max: 29.2417
smoothSolver:  Solving for Ux, Initial residual = 0.017913, Final residual = 9.51335e-06, No Iterations 35
smoothSolver:  Solving for Uy, Initial residual = 0.0330818, Final residual = 9.73526e-06, No Iterations 43
DICPCG:  Solving for p, Initial residual = 0.647841, Final residual = 0.0321161, No Iterations 225
time step continuity errors : sum local = 9.45158e-06, global = 3.39204e-09, cumulative = 6.89953e-06
DICPCG:  Solving for p, Initial residual = 0.22215, Final residual = 9.81745e-07, No Iterations 921
time step continuity errors : sum local = 8.44926e-10, global = 1.64114e-12, cumulative = 6.89953e-06
ExecutionTime = 10891.4 s  ClockTime = 10892 s

Time = 38.85

Courant Number mean: 0.0169722 max: 28.764
smoothSolver:  Solving for Ux, Initial residual = 0.0179224, Final residual = 9.26661e-06, No Iterations 35
smoothSolver:  Solving for Uy, Initial residual = 0.0327877, Final residual = 9.6785e-06, No Iterations 43
DICPCG:  Solving for p, Initial residual = 0.850053, Final residual = 0.0423601, No Iterations 220
time step continuity errors : sum local = 9.44442e-06, global = 2.29232e-08, cumulative = 6.92246e-06
DICPCG:  Solving for p, Initial residual = 0.353155, Final residual = 9.459e-07, No Iterations 929
time step continuity errors : sum local = 5.07986e-10, global = 2.8952e-12, cumulative = 6.92246e-06
ExecutionTime = 10905.2 s  ClockTime = 10905 s

Time = 38.9

Courant Number mean: 0.0169796 max: 28.2083
smoothSolver:  Solving for Ux, Initial residual = 0.0172176, Final residual = 9.07348e-06, No Iterations 35
smoothSolver:  Solving for Uy, Initial residual = 0.0325264, Final residual = 9.53448e-06, No Iterations 43
DICPCG:  Solving for p, Initial residual = 0.645354, Final residual = 0.0321033, No Iterations 225
time step continuity errors : sum local = 9.29751e-06, global = 3.30687e-09, cumulative = 6.92576e-06
DICPCG:  Solving for p, Initial residual = 0.221526, Final residual = 9.76797e-07, No Iterations 921
time step continuity errors : sum local = 8.26203e-10, global = 1.65077e-12, cumulative = 6.92577e-06
ExecutionTime = 10919 s  ClockTime = 10919 s

Time = 38.95

Courant Number mean: 0.0169882 max: 27.5785
smoothSolver:  Solving for Ux, Initial residual = 0.0171734, Final residual = 8.81035e-06, No Iterations 35
smoothSolver:  Solving for Uy, Initial residual = 0.0321371, Final residual = 9.45719e-06, No Iterations 43
DICPCG:  Solving for p, Initial residual = 0.84713, Final residual = 0.0416729, No Iterations 221
time step continuity errors : sum local = 9.11146e-06, global = 2.29924e-08, cumulative = 6.94876e-06
DICPCG:  Solving for p, Initial residual = 0.353101, Final residual = 9.53312e-07, No Iterations 929
time step continuity errors : sum local = 4.9988e-10, global = 2.82099e-12, cumulative = 6.94876e-06
ExecutionTime = 10932.8 s  ClockTime = 10933 s

Time = 39

Courant Number mean: 0.0169948 max: 26.8811
smoothSolver:  Solving for Ux, Initial residual = 0.0163521, Final residual = 8.57801e-06, No Iterations 35
smoothSolver:  Solving for Uy, Initial residual = 0.0317235, Final residual = 9.29532e-06, No Iterations 43
DICPCG:  Solving for p, Initial residual = 0.646233, Final residual = 0.0319289, No Iterations 225
time step continuity errors : sum local = 9.0105e-06, global = 3.32964e-09, cumulative = 6.95209e-06
DICPCG:  Solving for p, Initial residual = 0.222958, Final residual = 9.90567e-07, No Iterations 921
time step continuity errors : sum local = 8.1061e-10, global = 1.68214e-12, cumulative = 6.95209e-06
ExecutionTime = 10949.2 s  ClockTime = 10950 s

Time = 39.05

Courant Number mean: 0.0170021 max: 26.1203
smoothSolver:  Solving for Ux, Initial residual = 0.0163229, Final residual = 9.86708e-06, No Iterations 34
smoothSolver:  Solving for Uy, Initial residual = 0.0312731, Final residual = 9.19807e-06, No Iterations 43
DICPCG:  Solving for p, Initial residual = 0.84615, Final residual = 0.0418718, No Iterations 221
time step continuity errors : sum local = 8.91203e-06, global = 2.2106e-08, cumulative = 6.9742e-06
DICPCG:  Solving for p, Initial residual = 0.353441, Final residual = 9.41018e-07, No Iterations 929
time step continuity errors : sum local = 4.78941e-10, global = 2.69948e-12, cumulative = 6.9742e-06
ExecutionTime = 10963 s  ClockTime = 10963 s

Time = 39.1

Courant Number mean: 0.0170082 max: 25.2979
smoothSolver:  Solving for Ux, Initial residual = 0.0155186, Final residual = 9.56968e-06, No Iterations 34
smoothSolver:  Solving for Uy, Initial residual = 0.0308416, Final residual = 9.02135e-06, No Iterations 43
DICPCG:  Solving for p, Initial residual = 0.644223, Final residual = 0.0318418, No Iterations 225
time step continuity errors : sum local = 8.74842e-06, global = 3.2385e-09, cumulative = 6.97744e-06
DICPCG:  Solving for p, Initial residual = 0.22296, Final residual = 9.77279e-07, No Iterations 921
time step continuity errors : sum local = 7.75673e-10, global = 1.77029e-12, cumulative = 6.97744e-06
ExecutionTime = 10976.8 s  ClockTime = 10977 s

Time = 39.15

Courant Number mean: 0.0170145 max: 24.4104
smoothSolver:  Solving for Ux, Initial residual = 0.0154458, Final residual = 9.25184e-06, No Iterations 34
smoothSolver:  Solving for Uy, Initial residual = 0.0303151, Final residual = 8.9031e-06, No Iterations 43
DICPCG:  Solving for p, Initial residual = 0.842747, Final residual = 0.0415695, No Iterations 221
time step continuity errors : sum local = 8.59077e-06, global = 2.145e-08, cumulative = 6.99889e-06
DICPCG:  Solving for p, Initial residual = 0.353124, Final residual = 9.93818e-07, No Iterations 928
time step continuity errors : sum local = 4.8912e-10, global = 2.60892e-12, cumulative = 6.99889e-06
ExecutionTime = 10990.4 s  ClockTime = 10991 s

Time = 39.2

Courant Number mean: 0.0170204 max: 23.4641
smoothSolver:  Solving for Ux, Initial residual = 0.0146344, Final residual = 8.94842e-06, No Iterations 34
smoothSolver:  Solving for Uy, Initial residual = 0.0298326, Final residual = 8.71445e-06, No Iterations 43
DICPCG:  Solving for p, Initial residual = 0.641642, Final residual = 0.0317681, No Iterations 225
time step continuity errors : sum local = 8.45325e-06, global = 3.10389e-09, cumulative = 7.002e-06
DICPCG:  Solving for p, Initial residual = 0.22282, Final residual = 9.78932e-07, No Iterations 921
time step continuity errors : sum local = 7.49728e-10, global = 1.6549e-12, cumulative = 7.002e-06
ExecutionTime = 11004.1 s  ClockTime = 11004 s

Time = 39.25

Courant Number mean: 0.0170258 max: 22.4413
smoothSolver:  Solving for Ux, Initial residual = 0.0145327, Final residual = 8.63362e-06, No Iterations 34
smoothSolver:  Solving for Uy, Initial residual = 0.0292504, Final residual = 8.57846e-06, No Iterations 43
DICPCG:  Solving for p, Initial residual = 0.839673, Final residual = 0.0419226, No Iterations 220
time step continuity errors : sum local = 8.36255e-06, global = 2.03373e-08, cumulative = 7.02234e-06
DICPCG:  Solving for p, Initial residual = 0.352436, Final residual = 9.9523e-07, No Iterations 928
time step continuity errors : sum local = 4.72592e-10, global = 2.49217e-12, cumulative = 7.02234e-06
ExecutionTime = 11017.9 s  ClockTime = 11018 s

Time = 39.3

Courant Number mean: 0.0170316 max: 21.5563
smoothSolver:  Solving for Ux, Initial residual = 0.0138042, Final residual = 9.93513e-06, No Iterations 33
smoothSolver:  Solving for Uy, Initial residual = 0.0287857, Final residual = 9.89625e-06, No Iterations 42
DICPCG:  Solving for p, Initial residual = 0.635702, Final residual = 0.0316901, No Iterations 225
time step continuity errors : sum local = 8.1486e-06, global = 2.85503e-09, cumulative = 7.02519e-06
DICPCG:  Solving for p, Initial residual = 0.22059, Final residual = 9.72922e-07, No Iterations 921
time step continuity errors : sum local = 7.21829e-10, global = 1.62371e-12, cumulative = 7.0252e-06
ExecutionTime = 11031.7 s  ClockTime = 11032 s

Time = 39.35

Courant Number mean: 0.0170369 max: 22.367
smoothSolver:  Solving for Ux, Initial residual = 0.0136424, Final residual = 9.53979e-06, No Iterations 33
smoothSolver:  Solving for Uy, Initial residual = 0.028138, Final residual = 9.71624e-06, No Iterations 42
DICPCG:  Solving for p, Initial residual = 0.836199, Final residual = 0.0416625, No Iterations 220
time step continuity errors : sum local = 7.99496e-06, global = 1.98934e-08, cumulative = 7.04509e-06
DICPCG:  Solving for p, Initial residual = 0.351638, Final residual = 9.84685e-07, No Iterations 928
time step continuity errors : sum local = 4.48702e-10, global = 2.39567e-12, cumulative = 7.04509e-06
ExecutionTime = 11045.6 s  ClockTime = 11046 s

Time = 39.4

Courant Number mean: 0.0170415 max: 23.0232
smoothSolver:  Solving for Ux, Initial residual = 0.0129051, Final residual = 9.25403e-06, No Iterations 33
smoothSolver:  Solving for Uy, Initial residual = 0.0276096, Final residual = 9.48421e-06, No Iterations 42
DICPCG:  Solving for p, Initial residual = 0.634121, Final residual = 0.0314276, No Iterations 225
time step continuity errors : sum local = 7.75868e-06, global = 2.6915e-09, cumulative = 7.04778e-06
DICPCG:  Solving for p, Initial residual = 0.220647, Final residual = 9.63418e-07, No Iterations 921
time step continuity errors : sum local = 6.84151e-10, global = 1.45679e-12, cumulative = 7.04779e-06
ExecutionTime = 11059.2 s  ClockTime = 11060 s

Time = 39.45

Courant Number mean: 0.0170459 max: 23.5169
smoothSolver:  Solving for Ux, Initial residual = 0.012755, Final residual = 8.88542e-06, No Iterations 33
smoothSolver:  Solving for Uy, Initial residual = 0.0269636, Final residual = 9.29914e-06, No Iterations 42
DICPCG:  Solving for p, Initial residual = 0.834673, Final residual = 0.0416552, No Iterations 220
time step continuity errors : sum local = 7.66304e-06, global = 1.90708e-08, cumulative = 7.06686e-06
DICPCG:  Solving for p, Initial residual = 0.352043, Final residual = 9.79613e-07, No Iterations 928
time step continuity errors : sum local = 4.2656e-10, global = 2.2805e-12, cumulative = 7.06686e-06
ExecutionTime = 11073 s  ClockTime = 11073 s

Time = 39.5

Courant Number mean: 0.0170496 max: 23.8129
smoothSolver:  Solving for Ux, Initial residual = 0.0120621, Final residual = 8.63251e-06, No Iterations 33
smoothSolver:  Solving for Uy, Initial residual = 0.0264404, Final residual = 9.07324e-06, No Iterations 42
DICPCG:  Solving for p, Initial residual = 0.632457, Final residual = 0.0313463, No Iterations 225
time step continuity errors : sum local = 7.42005e-06, global = 2.56342e-09, cumulative = 7.06942e-06
DICPCG:  Solving for p, Initial residual = 0.221046, Final residual = 9.99824e-07, No Iterations 920
time step continuity errors : sum local = 6.77655e-10, global = 1.75721e-12, cumulative = 7.06942e-06
ExecutionTime = 11086.7 s  ClockTime = 11087 s

Time = 39.55

Courant Number mean: 0.0170522 max: 23.916
smoothSolver:  Solving for Ux, Initial residual = 0.0119356, Final residual = 9.87361e-06, No Iterations 32
smoothSolver:  Solving for Uy, Initial residual = 0.0258079, Final residual = 8.89455e-06, No Iterations 42
DICPCG:  Solving for p, Initial residual = 0.832805, Final residual = 0.041287, No Iterations 220
time step continuity errors : sum local = 7.28059e-06, global = 1.81956e-08, cumulative = 7.08762e-06
DICPCG:  Solving for p, Initial residual = 0.352294, Final residual = 9.81172e-07, No Iterations 928
time step continuity errors : sum local = 4.08089e-10, global = 2.15984e-12, cumulative = 7.08762e-06
ExecutionTime = 11100.4 s  ClockTime = 11101 s

Time = 39.6

Courant Number mean: 0.0170542 max: 23.8041
smoothSolver:  Solving for Ux, Initial residual = 0.0112972, Final residual = 9.62625e-06, No Iterations 32
smoothSolver:  Solving for Uy, Initial residual = 0.0253087, Final residual = 8.68575e-06, No Iterations 42
DICPCG:  Solving for p, Initial residual = 0.631327, Final residual = 0.0310206, No Iterations 225
time step continuity errors : sum local = 7.03969e-06, global = 2.44831e-09, cumulative = 7.09007e-06
DICPCG:  Solving for p, Initial residual = 0.221617, Final residual = 9.80973e-07, No Iterations 920
time step continuity errors : sum local = 6.34409e-10, global = 1.68207e-12, cumulative = 7.09007e-06
ExecutionTime = 11114.1 s  ClockTime = 11114 s

Time = 39.65

Courant Number mean: 0.0170561 max: 23.4978
smoothSolver:  Solving for Ux, Initial residual = 0.011196, Final residual = 9.2891e-06, No Iterations 32
smoothSolver:  Solving for Uy, Initial residual = 0.0247017, Final residual = 8.52478e-06, No Iterations 42
DICPCG:  Solving for p, Initial residual = 0.831595, Final residual = 0.0413015, No Iterations 220
time step continuity errors : sum local = 6.98235e-06, global = 1.73602e-08, cumulative = 7.10743e-06
DICPCG:  Solving for p, Initial residual = 0.35288, Final residual = 9.74108e-07, No Iterations 928
time step continuity errors : sum local = 3.87344e-10, global = 2.03566e-12, cumulative = 7.10743e-06
ExecutionTime = 11127.7 s  ClockTime = 11128 s

Time = 39.7

Courant Number mean: 0.0170567 max: 22.9902
smoothSolver:  Solving for Ux, Initial residual = 0.0106159, Final residual = 9.09046e-06, No Iterations 32
smoothSolver:  Solving for Uy, Initial residual = 0.0242438, Final residual = 9.8452e-06, No Iterations 41
DICPCG:  Solving for p, Initial residual = 0.63083, Final residual = 0.030998, No Iterations 225
time step continuity errors : sum local = 6.74764e-06, global = 2.35344e-09, cumulative = 7.10979e-06
DICPCG:  Solving for p, Initial residual = 0.222476, Final residual = 9.80654e-07, No Iterations 920
time step continuity errors : sum local = 6.05648e-10, global = 1.65413e-12, cumulative = 7.10979e-06
ExecutionTime = 11141.3 s  ClockTime = 11142 s

Time = 39.75

Courant Number mean: 0.0170561 max: 22.3179
smoothSolver:  Solving for Ux, Initial residual = 0.0105497, Final residual = 8.8098e-06, No Iterations 32
smoothSolver:  Solving for Uy, Initial residual = 0.0236947, Final residual = 9.68547e-06, No Iterations 41
DICPCG:  Solving for p, Initial residual = 0.831345, Final residual = 0.0415398, No Iterations 219
time step continuity errors : sum local = 6.74537e-06, global = 1.62438e-08, cumulative = 7.12603e-06
DICPCG:  Solving for p, Initial residual = 0.353849, Final residual = 9.61179e-07, No Iterations 928
time step continuity errors : sum local = 3.67285e-10, global = 1.90848e-12, cumulative = 7.12603e-06
ExecutionTime = 11155 s  ClockTime = 11155 s

Time = 39.8

Courant Number mean: 0.0170555 max: 21.4885
smoothSolver:  Solving for Ux, Initial residual = 0.0100892, Final residual = 8.69136e-06, No Iterations 32
smoothSolver:  Solving for Uy, Initial residual = 0.0233513, Final residual = 9.51345e-06, No Iterations 41
DICPCG:  Solving for p, Initial residual = 0.627832, Final residual = 0.0310105, No Iterations 225
time step continuity errors : sum local = 6.51066e-06, global = 2.1779e-09, cumulative = 7.12821e-06
DICPCG:  Solving for p, Initial residual = 0.221438, Final residual = 9.87846e-07, No Iterations 920
time step continuity errors : sum local = 5.90491e-10, global = 1.59626e-12, cumulative = 7.12821e-06
ExecutionTime = 11168.8 s  ClockTime = 11169 s

Time = 39.85

Courant Number mean: 0.0170549 max: 20.6186
smoothSolver:  Solving for Ux, Initial residual = 0.0100147, Final residual = 8.43294e-06, No Iterations 32
smoothSolver:  Solving for Uy, Initial residual = 0.0228301, Final residual = 9.39208e-06, No Iterations 41
DICPCG:  Solving for p, Initial residual = 0.831447, Final residual = 0.0412654, No Iterations 219
time step continuity errors : sum local = 6.45768e-06, global = 1.58267e-08, cumulative = 7.14404e-06
DICPCG:  Solving for p, Initial residual = 0.3536, Final residual = 9.6163e-07, No Iterations 928
time step continuity errors : sum local = 3.54389e-10, global = 1.80673e-12, cumulative = 7.14404e-06
ExecutionTime = 11182.8 s  ClockTime = 11183 s

Time = 39.9

Courant Number mean: 0.0170532 max: 20.9198
smoothSolver:  Solving for Ux, Initial residual = 0.00958911, Final residual = 9.96834e-06, No Iterations 31
smoothSolver:  Solving for Uy, Initial residual = 0.0225339, Final residual = 9.268e-06, No Iterations 41
DICPCG:  Solving for p, Initial residual = 0.62967, Final residual = 0.0309576, No Iterations 225
time step continuity errors : sum local = 6.26676e-06, global = 2.09871e-09, cumulative = 7.14614e-06
DICPCG:  Solving for p, Initial residual = 0.222152, Final residual = 9.89653e-07, No Iterations 920
time step continuity errors : sum local = 5.70339e-10, global = 1.59298e-12, cumulative = 7.14614e-06
ExecutionTime = 11196.5 s  ClockTime = 11197 s

Time = 39.95

Courant Number mean: 0.0170511 max: 21.1117
smoothSolver:  Solving for Ux, Initial residual = 0.00955902, Final residual = 9.72201e-06, No Iterations 31
smoothSolver:  Solving for Uy, Initial residual = 0.0221072, Final residual = 9.19218e-06, No Iterations 41
DICPCG:  Solving for p, Initial residual = 0.834103, Final residual = 0.0411838, No Iterations 219
time step continuity errors : sum local = 6.22831e-06, global = 1.52431e-08, cumulative = 7.16139e-06
DICPCG:  Solving for p, Initial residual = 0.354316, Final residual = 9.91636e-07, No Iterations 928
time step continuity errors : sum local = 3.53663e-10, global = 1.71353e-12, cumulative = 7.16139e-06
ExecutionTime = 11210.1 s  ClockTime = 11210 s

Time = 40

Courant Number mean: 0.017047 max: 21.178
smoothSolver:  Solving for Ux, Initial residual = 0.00918993, Final residual = 9.69885e-06, No Iterations 31
smoothSolver:  Solving for Uy, Initial residual = 0.0218915, Final residual = 9.1167e-06, No Iterations 41
DICPCG:  Solving for p, Initial residual = 0.632461, Final residual = 0.0312517, No Iterations 224
time step continuity errors : sum local = 6.12532e-06, global = 2.04751e-09, cumulative = 7.16344e-06
DICPCG:  Solving for p, Initial residual = 0.222776, Final residual = 9.86048e-07, No Iterations 920
time step continuity errors : sum local = 5.50431e-10, global = 1.61523e-12, cumulative = 7.16344e-06
ExecutionTime = 11226.3 s  ClockTime = 11227 s

End

