/*---------------------------------------------------------------------------*\
  =========                 |
  \\      /  F ield         | OpenFOAM: The Open Source CFD Toolbox
   \\    /   O peration     | Website:  https://openfoam.org
    \\  /    A nd           | Version:  7
     \\/     M anipulation  |
\*---------------------------------------------------------------------------*/
Build  : 7-49b2b3b8b082
Exec   : icoFoam
Date   : May 14 2021
Time   : 17:21:10
Host   : "c429-051.stampede2.tacc.utexas.edu"
PID    : 124429
I/O    : uncollated
Case   : /work2/06782/kenmeyer/stampede2/final_serial/COE347/finalProject/test_movingboundary/wedge05
nProcs : 1
sigFpe : Enabling floating point exception trapping (FOAM_SIGFPE).
fileModificationChecking : Monitoring run-time modified files using timeStampMaster (fileModificationSkew 10)
allowSystemOperations : Allowing user-supplied system call operations

// * * * * * * * * * * * * * * * * * * * * * * * * * * * * * * * * * * * * * //
Create time

Create mesh for time = 0

Reading transportProperties

Reading field p

Reading field U

Reading/calculating face flux field phi


Starting time loop

Time = 0.05

Courant Number mean: 0.00377291 max: 0.0843347
smoothSolver:  Solving for Ux, Initial residual = 1, Final residual = 5.55831e-06, No Iterations 7
smoothSolver:  Solving for Uy, Initial residual = 0, Final residual = 0, No Iterations 0
DICPCG:  Solving for p, Initial residual = 1, Final residual = 0.0472846, No Iterations 188
time step continuity errors : sum local = 1.1915e-07, global = 8.13993e-10, cumulative = 8.13993e-10
DICPCG:  Solving for p, Initial residual = 0.181785, Final residual = 9.27211e-07, No Iterations 254
time step continuity errors : sum local = 1.36607e-11, global = -8.09995e-14, cumulative = 8.13912e-10
ExecutionTime = 0.42 s  ClockTime = 0 s

Time = 0.1

Courant Number mean: 0.00378635 max: 0.121269
smoothSolver:  Solving for Ux, Initial residual = 0.238018, Final residual = 3.51509e-06, No Iterations 5
smoothSolver:  Solving for Uy, Initial residual = 0.177375, Final residual = 2.76614e-06, No Iterations 5
DICPCG:  Solving for p, Initial residual = 0.207389, Final residual = 0.00970589, No Iterations 187
time step continuity errors : sum local = 1.40001e-07, global = -1.11785e-09, cumulative = -3.03941e-10
DICPCG:  Solving for p, Initial residual = 0.522339, Final residual = 9.57596e-07, No Iterations 262
time step continuity errors : sum local = 4.88954e-12, global = -2.49915e-14, cumulative = -3.03966e-10
ExecutionTime = 0.59 s  ClockTime = 1 s

Time = 0.15

Courant Number mean: 0.00378524 max: 0.112408
smoothSolver:  Solving for Ux, Initial residual = 0.00842318, Final residual = 4.19974e-06, No Iterations 4
smoothSolver:  Solving for Uy, Initial residual = 0.00516511, Final residual = 6.56115e-06, No Iterations 3
DICPCG:  Solving for p, Initial residual = 0.378746, Final residual = 0.0181503, No Iterations 56
time step continuity errors : sum local = 3.46061e-08, global = -1.16329e-10, cumulative = -4.20295e-10
DICPCG:  Solving for p, Initial residual = 0.0982507, Final residual = 9.45877e-07, No Iterations 247
time step continuity errors : sum local = 1.58002e-12, global = -1.52284e-14, cumulative = -4.20311e-10
ExecutionTime = 0.72 s  ClockTime = 1 s

Time = 0.2

Courant Number mean: 0.00378219 max: 0.100731
smoothSolver:  Solving for Ux, Initial residual = 0.00780293, Final residual = 2.37628e-06, No Iterations 4
smoothSolver:  Solving for Uy, Initial residual = 0.00857036, Final residual = 3.36607e-06, No Iterations 3
DICPCG:  Solving for p, Initial residual = 0.101998, Final residual = 0.00504353, No Iterations 55
time step continuity errors : sum local = 9.43108e-09, global = 2.10591e-11, cumulative = -3.99251e-10
DICPCG:  Solving for p, Initial residual = 0.0231859, Final residual = 9.44429e-07, No Iterations 224
time step continuity errors : sum local = 1.71387e-12, global = 4.39781e-16, cumulative = -3.99251e-10
ExecutionTime = 0.84 s  ClockTime = 1 s

Time = 0.25

Courant Number mean: 0.00377974 max: 0.0942877
smoothSolver:  Solving for Ux, Initial residual = 0.00518965, Final residual = 8.115e-06, No Iterations 3
smoothSolver:  Solving for Uy, Initial residual = 0.0070454, Final residual = 3.16476e-06, No Iterations 3
DICPCG:  Solving for p, Initial residual = 0.0666034, Final residual = 0.00332669, No Iterations 55
time step continuity errors : sum local = 5.74602e-09, global = -3.72889e-12, cumulative = -4.0298e-10
DICPCG:  Solving for p, Initial residual = 0.0118011, Final residual = 9.91576e-07, No Iterations 220
time step continuity errors : sum local = 1.68721e-12, global = -1.63221e-14, cumulative = -4.02996e-10
ExecutionTime = 0.96 s  ClockTime = 1 s

Time = 0.3

Courant Number mean: 0.00377763 max: 0.0909783
smoothSolver:  Solving for Ux, Initial residual = 0.00389982, Final residual = 6.02255e-06, No Iterations 3
smoothSolver:  Solving for Uy, Initial residual = 0.00617137, Final residual = 2.78827e-06, No Iterations 3
DICPCG:  Solving for p, Initial residual = 0.0517093, Final residual = 0.00244223, No Iterations 56
time step continuity errors : sum local = 4.03628e-09, global = -1.81209e-12, cumulative = -4.04808e-10
DICPCG:  Solving for p, Initial residual = 0.0086875, Final residual = 8.86298e-07, No Iterations 220
time step continuity errors : sum local = 1.44745e-12, global = -7.75265e-15, cumulative = -4.04816e-10
ExecutionTime = 1.07 s  ClockTime = 1 s

Time = 0.35

Courant Number mean: 0.00377577 max: 0.0876728
smoothSolver:  Solving for Ux, Initial residual = 0.00310911, Final residual = 4.69991e-06, No Iterations 3
smoothSolver:  Solving for Uy, Initial residual = 0.00552601, Final residual = 2.49067e-06, No Iterations 3
DICPCG:  Solving for p, Initial residual = 0.0424401, Final residual = 0.00198632, No Iterations 56
time step continuity errors : sum local = 3.16493e-09, global = -1.35807e-12, cumulative = -4.06174e-10
DICPCG:  Solving for p, Initial residual = 0.00680322, Final residual = 9.36751e-07, No Iterations 219
time step continuity errors : sum local = 1.47579e-12, global = -8.11459e-15, cumulative = -4.06182e-10
ExecutionTime = 1.18 s  ClockTime = 1 s

Time = 0.4

Courant Number mean: 0.0037741 max: 0.0845174
smoothSolver:  Solving for Ux, Initial residual = 0.00257715, Final residual = 3.80215e-06, No Iterations 3
smoothSolver:  Solving for Uy, Initial residual = 0.00502536, Final residual = 2.24073e-06, No Iterations 3
DICPCG:  Solving for p, Initial residual = 0.035703, Final residual = 0.00166485, No Iterations 56
time step continuity errors : sum local = 2.56957e-09, global = -1.06743e-12, cumulative = -4.0725e-10
DICPCG:  Solving for p, Initial residual = 0.00549644, Final residual = 9.50616e-07, No Iterations 218
time step continuity errors : sum local = 1.45325e-12, global = -8.0776e-15, cumulative = -4.07258e-10
ExecutionTime = 1.3 s  ClockTime = 1 s

Time = 0.45

Courant Number mean: 0.00377258 max: 0.0815722
smoothSolver:  Solving for Ux, Initial residual = 0.00219513, Final residual = 3.1593e-06, No Iterations 3
smoothSolver:  Solving for Uy, Initial residual = 0.00462152, Final residual = 2.03153e-06, No Iterations 3
DICPCG:  Solving for p, Initial residual = 0.0311551, Final residual = 0.00153665, No Iterations 55
time step continuity errors : sum local = 2.30796e-09, global = -8.49178e-13, cumulative = -4.08107e-10
DICPCG:  Solving for p, Initial residual = 0.00473573, Final residual = 9.25871e-07, No Iterations 217
time step continuity errors : sum local = 1.37859e-12, global = -8.33471e-15, cumulative = -4.08115e-10
ExecutionTime = 1.42 s  ClockTime = 1 s

Time = 0.5

Courant Number mean: 0.00377119 max: 0.0788529
smoothSolver:  Solving for Ux, Initial residual = 0.00190712, Final residual = 2.67956e-06, No Iterations 3
smoothSolver:  Solving for Uy, Initial residual = 0.00428567, Final residual = 1.8542e-06, No Iterations 3
DICPCG:  Solving for p, Initial residual = 0.0276955, Final residual = 0.00136681, No Iterations 54
time step continuity errors : sum local = 2.0046e-09, global = -7.42605e-13, cumulative = -4.08858e-10
DICPCG:  Solving for p, Initial residual = 0.00413486, Final residual = 9.46247e-07, No Iterations 216
time step continuity errors : sum local = 1.37748e-12, global = -9.32479e-15, cumulative = -4.08867e-10
ExecutionTime = 1.71 s  ClockTime = 2 s

Time = 0.55

Courant Number mean: 0.00376991 max: 0.0764479
smoothSolver:  Solving for Ux, Initial residual = 0.00168187, Final residual = 2.31035e-06, No Iterations 3
smoothSolver:  Solving for Uy, Initial residual = 0.00399851, Final residual = 9.67694e-06, No Iterations 2
DICPCG:  Solving for p, Initial residual = 0.0254715, Final residual = 0.00123805, No Iterations 54
time step continuity errors : sum local = 1.77762e-09, global = -6.70396e-13, cumulative = -4.09538e-10
DICPCG:  Solving for p, Initial residual = 0.00405786, Final residual = 9.09703e-07, No Iterations 216
time step continuity errors : sum local = 1.29695e-12, global = -8.14224e-15, cumulative = -4.09546e-10
ExecutionTime = 1.82 s  ClockTime = 2 s

Time = 0.6

Courant Number mean: 0.00376872 max: 0.0748044
smoothSolver:  Solving for Ux, Initial residual = 0.00150052, Final residual = 2.01819e-06, No Iterations 3
smoothSolver:  Solving for Uy, Initial residual = 0.00374845, Final residual = 8.95849e-06, No Iterations 2
DICPCG:  Solving for p, Initial residual = 0.0239828, Final residual = 0.00115798, No Iterations 53
time step continuity errors : sum local = 1.62734e-09, global = -5.95643e-13, cumulative = -4.10141e-10
DICPCG:  Solving for p, Initial residual = 0.00368946, Final residual = 8.97451e-07, No Iterations 215
time step continuity errors : sum local = 1.25041e-12, global = -7.60844e-15, cumulative = -4.10149e-10
ExecutionTime = 1.94 s  ClockTime = 2 s

Time = 0.65

Courant Number mean: 0.00376762 max: 0.0734423
smoothSolver:  Solving for Ux, Initial residual = 0.00135118, Final residual = 9.53617e-06, No Iterations 2
smoothSolver:  Solving for Uy, Initial residual = 0.00352882, Final residual = 8.3382e-06, No Iterations 2
DICPCG:  Solving for p, Initial residual = 0.0218356, Final residual = 0.00107756, No Iterations 55
time step continuity errors : sum local = 1.48122e-09, global = -5.77452e-13, cumulative = -4.10726e-10
DICPCG:  Solving for p, Initial residual = 0.00386313, Final residual = 9.98067e-07, No Iterations 214
time step continuity errors : sum local = 1.36115e-12, global = -8.62128e-15, cumulative = -4.10735e-10
ExecutionTime = 2.06 s  ClockTime = 2 s

Time = 0.7

Courant Number mean: 0.00376659 max: 0.0721437
smoothSolver:  Solving for Ux, Initial residual = 0.00122414, Final residual = 8.53746e-06, No Iterations 2
smoothSolver:  Solving for Uy, Initial residual = 0.00332313, Final residual = 7.77708e-06, No Iterations 2
DICPCG:  Solving for p, Initial residual = 0.0201473, Final residual = 0.00098304, No Iterations 54
time step continuity errors : sum local = 1.32691e-09, global = -5.97722e-13, cumulative = -4.11333e-10
DICPCG:  Solving for p, Initial residual = 0.00353116, Final residual = 9.14029e-07, No Iterations 214
time step continuity errors : sum local = 1.22751e-12, global = -1.00562e-14, cumulative = -4.11343e-10
ExecutionTime = 2.17 s  ClockTime = 2 s

Time = 0.75

Courant Number mean: 0.00376562 max: 0.070905
smoothSolver:  Solving for Ux, Initial residual = 0.00111827, Final residual = 7.69231e-06, No Iterations 2
smoothSolver:  Solving for Uy, Initial residual = 0.0031459, Final residual = 7.2766e-06, No Iterations 2
DICPCG:  Solving for p, Initial residual = 0.0189442, Final residual = 0.000913047, No Iterations 54
time step continuity errors : sum local = 1.21503e-09, global = -5.07107e-13, cumulative = -4.1185e-10
DICPCG:  Solving for p, Initial residual = 0.00330998, Final residual = 8.55365e-07, No Iterations 214
time step continuity errors : sum local = 1.13283e-12, global = -8.10685e-15, cumulative = -4.11858e-10
ExecutionTime = 2.28 s  ClockTime = 2 s

Time = 0.8

Courant Number mean: 0.00376471 max: 0.0697245
smoothSolver:  Solving for Ux, Initial residual = 0.00102677, Final residual = 6.97387e-06, No Iterations 2
smoothSolver:  Solving for Uy, Initial residual = 0.00298401, Final residual = 6.83078e-06, No Iterations 2
DICPCG:  Solving for p, Initial residual = 0.017848, Final residual = 0.000854274, No Iterations 54
time step continuity errors : sum local = 1.12194e-09, global = -5.06259e-13, cumulative = -4.12364e-10
DICPCG:  Solving for p, Initial residual = 0.00309393, Final residual = 9.09789e-07, No Iterations 213
time step continuity errors : sum local = 1.18973e-12, global = -7.33904e-15, cumulative = -4.12372e-10
ExecutionTime = 2.4 s  ClockTime = 2 s

Time = 0.85

Courant Number mean: 0.00376384 max: 0.0685997
smoothSolver:  Solving for Ux, Initial residual = 0.000947198, Final residual = 6.35817e-06, No Iterations 2
smoothSolver:  Solving for Uy, Initial residual = 0.00283499, Final residual = 6.42556e-06, No Iterations 2
DICPCG:  Solving for p, Initial residual = 0.0168873, Final residual = 0.000798832, No Iterations 54
time step continuity errors : sum local = 1.03635e-09, global = -4.72706e-13, cumulative = -4.12844e-10
DICPCG:  Solving for p, Initial residual = 0.00291361, Final residual = 9.90762e-07, No Iterations 201
time step continuity errors : sum local = 1.28003e-12, global = 4.63172e-14, cumulative = -4.12798e-10
ExecutionTime = 2.5 s  ClockTime = 3 s

Time = 0.9

Courant Number mean: 0.00376302 max: 0.0675275
smoothSolver:  Solving for Ux, Initial residual = 0.000877227, Final residual = 5.82393e-06, No Iterations 2
smoothSolver:  Solving for Uy, Initial residual = 0.00269855, Final residual = 6.06081e-06, No Iterations 2
DICPCG:  Solving for p, Initial residual = 0.0157032, Final residual = 0.000748663, No Iterations 54
time step continuity errors : sum local = 9.6018e-10, global = -4.25591e-13, cumulative = -4.13224e-10
DICPCG:  Solving for p, Initial residual = 0.00272, Final residual = 9.57508e-07, No Iterations 185
time step continuity errors : sum local = 1.22328e-12, global = 1.92055e-14, cumulative = -4.13204e-10
ExecutionTime = 2.6 s  ClockTime = 3 s

Time = 0.95

Courant Number mean: 0.00376225 max: 0.0665048
smoothSolver:  Solving for Ux, Initial residual = 0.000815412, Final residual = 5.35751e-06, No Iterations 2
smoothSolver:  Solving for Uy, Initial residual = 0.00257236, Final residual = 5.72745e-06, No Iterations 2
DICPCG:  Solving for p, Initial residual = 0.0149117, Final residual = 0.000741074, No Iterations 53
time step continuity errors : sum local = 9.40029e-10, global = -4.18545e-13, cumulative = -4.13623e-10
DICPCG:  Solving for p, Initial residual = 0.00256775, Final residual = 9.45035e-07, No Iterations 212
time step continuity errors : sum local = 1.1942e-12, global = -7.05651e-15, cumulative = -4.1363e-10
ExecutionTime = 2.71 s  ClockTime = 3 s

Time = 1

Courant Number mean: 0.00376151 max: 0.0655284
smoothSolver:  Solving for Ux, Initial residual = 0.000760324, Final residual = 4.94744e-06, No Iterations 2
smoothSolver:  Solving for Uy, Initial residual = 0.00245578, Final residual = 5.42714e-06, No Iterations 2
DICPCG:  Solving for p, Initial residual = 0.0140683, Final residual = 0.000662935, No Iterations 54
time step continuity errors : sum local = 8.32553e-10, global = -4.05286e-13, cumulative = -4.14035e-10
DICPCG:  Solving for p, Initial residual = 0.00241678, Final residual = 9.52505e-07, No Iterations 185
time step continuity errors : sum local = 1.19252e-12, global = -3.5578e-14, cumulative = -4.14071e-10
ExecutionTime = 3 s  ClockTime = 3 s

Time = 1.05

Courant Number mean: 0.00376081 max: 0.0646714
smoothSolver:  Solving for Ux, Initial residual = 0.00071118, Final residual = 4.58527e-06, No Iterations 2
smoothSolver:  Solving for Uy, Initial residual = 0.00234719, Final residual = 5.1499e-06, No Iterations 2
DICPCG:  Solving for p, Initial residual = 0.013495, Final residual = 0.000658591, No Iterations 53
time step continuity errors : sum local = 8.19585e-10, global = -3.94474e-13, cumulative = -4.14465e-10
DICPCG:  Solving for p, Initial residual = 0.00230893, Final residual = 9.3469e-07, No Iterations 210
time step continuity errors : sum local = 1.15952e-12, global = 4.07991e-15, cumulative = -4.14461e-10
ExecutionTime = 3.12 s  ClockTime = 3 s

Time = 1.1

Courant Number mean: 0.00376014 max: 0.0644961
smoothSolver:  Solving for Ux, Initial residual = 0.000666909, Final residual = 4.2615e-06, No Iterations 2
smoothSolver:  Solving for Uy, Initial residual = 0.0022463, Final residual = 4.89728e-06, No Iterations 2
DICPCG:  Solving for p, Initial residual = 0.0127291, Final residual = 0.000629296, No Iterations 53
time step continuity errors : sum local = 7.76094e-10, global = -3.44619e-13, cumulative = -4.14806e-10
DICPCG:  Solving for p, Initial residual = 0.00218026, Final residual = 9.04333e-07, No Iterations 185
time step continuity errors : sum local = 1.11186e-12, global = 4.01298e-14, cumulative = -4.14766e-10
ExecutionTime = 3.23 s  ClockTime = 3 s

Time = 1.15

Courant Number mean: 0.0037595 max: 0.0643047
smoothSolver:  Solving for Ux, Initial residual = 0.000627119, Final residual = 3.97218e-06, No Iterations 2
smoothSolver:  Solving for Uy, Initial residual = 0.00215274, Final residual = 4.66472e-06, No Iterations 2
DICPCG:  Solving for p, Initial residual = 0.0121796, Final residual = 0.000595233, No Iterations 53
time step continuity errors : sum local = 7.27916e-10, global = -3.15567e-13, cumulative = -4.15081e-10
DICPCG:  Solving for p, Initial residual = 0.00208819, Final residual = 9.75003e-07, No Iterations 184
time step continuity errors : sum local = 1.18906e-12, global = 3.48672e-14, cumulative = -4.15047e-10
ExecutionTime = 3.33 s  ClockTime = 3 s

Time = 1.2

Courant Number mean: 0.00375889 max: 0.0640995
smoothSolver:  Solving for Ux, Initial residual = 0.000591085, Final residual = 3.71204e-06, No Iterations 2
smoothSolver:  Solving for Uy, Initial residual = 0.00206541, Final residual = 4.44714e-06, No Iterations 2
DICPCG:  Solving for p, Initial residual = 0.0115522, Final residual = 0.000559961, No Iterations 53
time step continuity errors : sum local = 6.79255e-10, global = -3.10747e-13, cumulative = -4.15357e-10
DICPCG:  Solving for p, Initial residual = 0.00201496, Final residual = 8.47566e-07, No Iterations 184
time step continuity errors : sum local = 1.02514e-12, global = -8.73141e-15, cumulative = -4.15366e-10
ExecutionTime = 3.42 s  ClockTime = 4 s

Time = 1.25

Courant Number mean: 0.0037583 max: 0.0638826
smoothSolver:  Solving for Ux, Initial residual = 0.00055827, Final residual = 3.47778e-06, No Iterations 2
smoothSolver:  Solving for Uy, Initial residual = 0.00198389, Final residual = 4.24774e-06, No Iterations 2
DICPCG:  Solving for p, Initial residual = 0.0108014, Final residual = 0.000528659, No Iterations 53
time step continuity errors : sum local = 6.36186e-10, global = -3.19102e-13, cumulative = -4.15685e-10
DICPCG:  Solving for p, Initial residual = 0.00187405, Final residual = 9.7216e-07, No Iterations 183
time step continuity errors : sum local = 1.16671e-12, global = 1.32143e-14, cumulative = -4.15672e-10
ExecutionTime = 3.53 s  ClockTime = 4 s

Time = 1.3

Courant Number mean: 0.00375774 max: 0.0636557
smoothSolver:  Solving for Ux, Initial residual = 0.000528339, Final residual = 3.26511e-06, No Iterations 2
smoothSolver:  Solving for Uy, Initial residual = 0.00190766, Final residual = 4.06226e-06, No Iterations 2
DICPCG:  Solving for p, Initial residual = 0.0102557, Final residual = 0.000498489, No Iterations 53
time step continuity errors : sum local = 5.95591e-10, global = -2.79659e-13, cumulative = -4.15952e-10
DICPCG:  Solving for p, Initial residual = 0.00177985, Final residual = 9.21099e-07, No Iterations 183
time step continuity errors : sum local = 1.09803e-12, global = -6.04401e-15, cumulative = -4.15958e-10
ExecutionTime = 3.63 s  ClockTime = 4 s

Time = 1.35

Courant Number mean: 0.0037572 max: 0.0634202
smoothSolver:  Solving for Ux, Initial residual = 0.000500955, Final residual = 3.07196e-06, No Iterations 2
smoothSolver:  Solving for Uy, Initial residual = 0.00183607, Final residual = 3.8917e-06, No Iterations 2
DICPCG:  Solving for p, Initial residual = 0.00967611, Final residual = 0.00047352, No Iterations 53
time step continuity errors : sum local = 5.6231e-10, global = -2.82895e-13, cumulative = -4.1624e-10
DICPCG:  Solving for p, Initial residual = 0.00167706, Final residual = 8.93557e-07, No Iterations 184
time step continuity errors : sum local = 1.05921e-12, global = -3.55079e-14, cumulative = -4.16276e-10
ExecutionTime = 3.73 s  ClockTime = 4 s

Time = 1.4

Courant Number mean: 0.00375668 max: 0.0631776
smoothSolver:  Solving for Ux, Initial residual = 0.000475897, Final residual = 2.89641e-06, No Iterations 2
smoothSolver:  Solving for Uy, Initial residual = 0.00176902, Final residual = 3.7323e-06, No Iterations 2
DICPCG:  Solving for p, Initial residual = 0.00921616, Final residual = 0.000447412, No Iterations 53
time step continuity errors : sum local = 5.28421e-10, global = -2.77714e-13, cumulative = -4.16554e-10
DICPCG:  Solving for p, Initial residual = 0.00159984, Final residual = 9.61289e-07, No Iterations 184
time step continuity errors : sum local = 1.13339e-12, global = -4.36616e-14, cumulative = -4.16597e-10
ExecutionTime = 3.83 s  ClockTime = 4 s

Time = 1.45

Courant Number mean: 0.00375618 max: 0.0629292
smoothSolver:  Solving for Ux, Initial residual = 0.000452859, Final residual = 2.7358e-06, No Iterations 2
smoothSolver:  Solving for Uy, Initial residual = 0.00170621, Final residual = 3.58378e-06, No Iterations 2
DICPCG:  Solving for p, Initial residual = 0.00878313, Final residual = 0.000425227, No Iterations 53
time step continuity errors : sum local = 4.99649e-10, global = -2.6191e-13, cumulative = -4.16859e-10
DICPCG:  Solving for p, Initial residual = 0.00152362, Final residual = 9.56175e-07, No Iterations 207
time step continuity errors : sum local = 1.12173e-12, global = -5.75467e-15, cumulative = -4.16865e-10
ExecutionTime = 3.94 s  ClockTime = 4 s

Time = 1.5

Courant Number mean: 0.00375569 max: 0.0626759
smoothSolver:  Solving for Ux, Initial residual = 0.000431693, Final residual = 2.58866e-06, No Iterations 2
smoothSolver:  Solving for Uy, Initial residual = 0.00164715, Final residual = 3.4448e-06, No Iterations 2
DICPCG:  Solving for p, Initial residual = 0.00854682, Final residual = 0.000407554, No Iterations 53
time step continuity errors : sum local = 4.76638e-10, global = -2.30559e-13, cumulative = -4.17096e-10
DICPCG:  Solving for p, Initial residual = 0.00146731, Final residual = 9.76665e-07, No Iterations 207
time step continuity errors : sum local = 1.14066e-12, global = -4.27045e-15, cumulative = -4.171e-10
ExecutionTime = 4.24 s  ClockTime = 4 s

Time = 1.55

Courant Number mean: 0.00375522 max: 0.0624187
smoothSolver:  Solving for Ux, Initial residual = 0.000412215, Final residual = 2.4535e-06, No Iterations 2
smoothSolver:  Solving for Uy, Initial residual = 0.00159165, Final residual = 3.3156e-06, No Iterations 2
DICPCG:  Solving for p, Initial residual = 0.00831189, Final residual = 0.000408556, No Iterations 52
time step continuity errors : sum local = 4.75679e-10, global = -2.1995e-13, cumulative = -4.1732e-10
DICPCG:  Solving for p, Initial residual = 0.00143432, Final residual = 8.68937e-07, No Iterations 183
time step continuity errors : sum local = 1.01022e-12, global = -2.52931e-14, cumulative = -4.17345e-10
ExecutionTime = 4.34 s  ClockTime = 4 s

Time = 1.6

Courant Number mean: 0.00375477 max: 0.0621584
smoothSolver:  Solving for Ux, Initial residual = 0.000394188, Final residual = 2.32892e-06, No Iterations 2
smoothSolver:  Solving for Uy, Initial residual = 0.00153956, Final residual = 3.19398e-06, No Iterations 2
DICPCG:  Solving for p, Initial residual = 0.0078272, Final residual = 0.000386642, No Iterations 52
time step continuity errors : sum local = 4.48139e-10, global = -2.18122e-13, cumulative = -4.17563e-10
DICPCG:  Solving for p, Initial residual = 0.00136645, Final residual = 8.897e-07, No Iterations 183
time step continuity errors : sum local = 1.02968e-12, global = -2.96069e-14, cumulative = -4.17593e-10
ExecutionTime = 4.44 s  ClockTime = 5 s

Time = 1.65

Courant Number mean: 0.00375433 max: 0.0618958
smoothSolver:  Solving for Ux, Initial residual = 0.000377465, Final residual = 2.21408e-06, No Iterations 2
smoothSolver:  Solving for Uy, Initial residual = 0.00149087, Final residual = 3.08193e-06, No Iterations 2
DICPCG:  Solving for p, Initial residual = 0.00755292, Final residual = 0.000368338, No Iterations 52
time step continuity errors : sum local = 4.2503e-10, global = -2.05644e-13, cumulative = -4.17798e-10
DICPCG:  Solving for p, Initial residual = 0.00130842, Final residual = 9.41177e-07, No Iterations 183
time step continuity errors : sum local = 1.08443e-12, global = -3.54845e-14, cumulative = -4.17834e-10
ExecutionTime = 4.55 s  ClockTime = 5 s

Time = 1.7

Courant Number mean: 0.0037539 max: 0.0616315
smoothSolver:  Solving for Ux, Initial residual = 0.000361957, Final residual = 2.10795e-06, No Iterations 2
smoothSolver:  Solving for Uy, Initial residual = 0.00144512, Final residual = 2.97584e-06, No Iterations 2
DICPCG:  Solving for p, Initial residual = 0.00724093, Final residual = 0.000348266, No Iterations 52
time step continuity errors : sum local = 4.00227e-10, global = -2.00838e-13, cumulative = -4.18035e-10
DICPCG:  Solving for p, Initial residual = 0.00124311, Final residual = 9.23559e-07, No Iterations 206
time step continuity errors : sum local = 1.0601e-12, global = -3.31321e-15, cumulative = -4.18038e-10
ExecutionTime = 4.65 s  ClockTime = 5 s

Time = 1.75

Courant Number mean: 0.00375349 max: 0.061471
smoothSolver:  Solving for Ux, Initial residual = 0.000347575, Final residual = 2.00946e-06, No Iterations 2
smoothSolver:  Solving for Uy, Initial residual = 0.00140187, Final residual = 2.87543e-06, No Iterations 2
DICPCG:  Solving for p, Initial residual = 0.00706512, Final residual = 0.000342869, No Iterations 52
time step continuity errors : sum local = 3.92584e-10, global = -1.71441e-13, cumulative = -4.1821e-10
DICPCG:  Solving for p, Initial residual = 0.00121718, Final residual = 9.99005e-07, No Iterations 205
time step continuity errors : sum local = 1.14253e-12, global = -4.20945e-16, cumulative = -4.1821e-10
ExecutionTime = 4.77 s  ClockTime = 5 s

Time = 1.8

Courant Number mean: 0.00375309 max: 0.0614734
smoothSolver:  Solving for Ux, Initial residual = 0.000334259, Final residual = 1.91866e-06, No Iterations 2
smoothSolver:  Solving for Uy, Initial residual = 0.00136096, Final residual = 2.78129e-06, No Iterations 2
DICPCG:  Solving for p, Initial residual = 0.00689066, Final residual = 0.000324138, No Iterations 52
time step continuity errors : sum local = 3.69689e-10, global = -1.7369e-13, cumulative = -4.18384e-10
DICPCG:  Solving for p, Initial residual = 0.00117371, Final residual = 9.82011e-07, No Iterations 205
time step continuity errors : sum local = 1.11841e-12, global = 8.9789e-16, cumulative = -4.18383e-10
ExecutionTime = 4.88 s  ClockTime = 5 s

Time = 1.85

Courant Number mean: 0.0037527 max: 0.0614682
smoothSolver:  Solving for Ux, Initial residual = 0.00032178, Final residual = 1.83357e-06, No Iterations 2
smoothSolver:  Solving for Uy, Initial residual = 0.00132278, Final residual = 2.69264e-06, No Iterations 2
DICPCG:  Solving for p, Initial residual = 0.00641154, Final residual = 0.000300984, No Iterations 52
time step continuity errors : sum local = 3.4192e-10, global = -1.64671e-13, cumulative = -4.18547e-10
DICPCG:  Solving for p, Initial residual = 0.00110803, Final residual = 9.8957e-07, No Iterations 205
time step continuity errors : sum local = 1.12262e-12, global = 1.63633e-15, cumulative = -4.18546e-10
ExecutionTime = 4.98 s  ClockTime = 5 s

Time = 1.9

Courant Number mean: 0.00375233 max: 0.0614558
smoothSolver:  Solving for Ux, Initial residual = 0.000310153, Final residual = 1.75481e-06, No Iterations 2
smoothSolver:  Solving for Uy, Initial residual = 0.0012866, Final residual = 2.60977e-06, No Iterations 2
DICPCG:  Solving for p, Initial residual = 0.00615761, Final residual = 0.000287421, No Iterations 52
time step continuity errors : sum local = 3.25329e-10, global = -1.58582e-13, cumulative = -4.18704e-10
DICPCG:  Solving for p, Initial residual = 0.0010629, Final residual = 9.30887e-07, No Iterations 205
time step continuity errors : sum local = 1.05247e-12, global = 1.44877e-15, cumulative = -4.18703e-10
ExecutionTime = 5.09 s  ClockTime = 5 s

Time = 1.95

Courant Number mean: 0.00375196 max: 0.0614366
smoothSolver:  Solving for Ux, Initial residual = 0.000299271, Final residual = 1.68133e-06, No Iterations 2
smoothSolver:  Solving for Uy, Initial residual = 0.0012525, Final residual = 2.5322e-06, No Iterations 2
DICPCG:  Solving for p, Initial residual = 0.00588005, Final residual = 0.000275419, No Iterations 52
time step continuity errors : sum local = 3.10717e-10, global = -1.53342e-13, cumulative = -4.18856e-10
DICPCG:  Solving for p, Initial residual = 0.00101769, Final residual = 9.79942e-07, No Iterations 204
time step continuity errors : sum local = 1.10435e-12, global = 3.07739e-15, cumulative = -4.18853e-10
ExecutionTime = 5.2 s  ClockTime = 5 s

Time = 2

Courant Number mean: 0.00375161 max: 0.061411
smoothSolver:  Solving for Ux, Initial residual = 0.000289115, Final residual = 1.61247e-06, No Iterations 2
smoothSolver:  Solving for Uy, Initial residual = 0.00122013, Final residual = 2.45567e-06, No Iterations 2
DICPCG:  Solving for p, Initial residual = 0.00574643, Final residual = 0.000264388, No Iterations 52
time step continuity errors : sum local = 2.97324e-10, global = -1.46463e-13, cumulative = -4.19e-10
DICPCG:  Solving for p, Initial residual = 0.000990462, Final residual = 9.94715e-07, No Iterations 203
time step continuity errors : sum local = 1.1174e-12, global = 3.36948e-15, cumulative = -4.18996e-10
ExecutionTime = 5.49 s  ClockTime = 6 s

Time = 2.05

Courant Number mean: 0.00375126 max: 0.0613793
smoothSolver:  Solving for Ux, Initial residual = 0.000279595, Final residual = 1.54805e-06, No Iterations 2
smoothSolver:  Solving for Uy, Initial residual = 0.00118955, Final residual = 2.38289e-06, No Iterations 2
DICPCG:  Solving for p, Initial residual = 0.00555181, Final residual = 0.000271417, No Iterations 51
time step continuity errors : sum local = 3.04344e-10, global = -1.32286e-13, cumulative = -4.19129e-10
DICPCG:  Solving for p, Initial residual = 0.000956998, Final residual = 9.55111e-07, No Iterations 202
time step continuity errors : sum local = 1.07006e-12, global = -8.118e-16, cumulative = -4.19129e-10
ExecutionTime = 5.6 s  ClockTime = 6 s

Time = 2.1

Courant Number mean: 0.00375092 max: 0.061342
smoothSolver:  Solving for Ux, Initial residual = 0.000270648, Final residual = 1.48769e-06, No Iterations 2
smoothSolver:  Solving for Uy, Initial residual = 0.00116057, Final residual = 2.31494e-06, No Iterations 2
DICPCG:  Solving for p, Initial residual = 0.00531869, Final residual = 0.000262964, No Iterations 51
time step continuity errors : sum local = 2.94071e-10, global = -1.27452e-13, cumulative = -4.19257e-10
DICPCG:  Solving for p, Initial residual = 0.00092244, Final residual = 9.26609e-07, No Iterations 203
time step continuity errors : sum local = 1.03526e-12, global = 2.2877e-15, cumulative = -4.19255e-10
ExecutionTime = 5.7 s  ClockTime = 6 s

Time = 2.15

Courant Number mean: 0.00375059 max: 0.0612994
smoothSolver:  Solving for Ux, Initial residual = 0.000262242, Final residual = 9.75701e-06, No Iterations 1
smoothSolver:  Solving for Uy, Initial residual = 0.00113328, Final residual = 2.25193e-06, No Iterations 2
DICPCG:  Solving for p, Initial residual = 0.00605667, Final residual = 0.000295233, No Iterations 60
time step continuity errors : sum local = 3.29041e-10, global = -1.9254e-13, cumulative = -4.19447e-10
DICPCG:  Solving for p, Initial residual = 0.00292701, Final residual = 9.08936e-07, No Iterations 206
time step continuity errors : sum local = 1.01153e-12, global = -1.83865e-15, cumulative = -4.19449e-10
ExecutionTime = 5.82 s  ClockTime = 6 s

Time = 2.2

Courant Number mean: 0.00375028 max: 0.0612509
smoothSolver:  Solving for Ux, Initial residual = 0.000252673, Final residual = 9.47227e-06, No Iterations 1
smoothSolver:  Solving for Uy, Initial residual = 0.00109636, Final residual = 2.19077e-06, No Iterations 2
DICPCG:  Solving for p, Initial residual = 0.00575193, Final residual = 0.000285317, No Iterations 55
time step continuity errors : sum local = 3.16801e-10, global = -3.68639e-13, cumulative = -4.19818e-10
DICPCG:  Solving for p, Initial residual = 0.00275071, Final residual = 9.50968e-07, No Iterations 205
time step continuity errors : sum local = 1.05492e-12, global = -2.65629e-16, cumulative = -4.19818e-10
ExecutionTime = 5.92 s  ClockTime = 6 s

Time = 2.25

Courant Number mean: 0.00374997 max: 0.0611979
smoothSolver:  Solving for Ux, Initial residual = 0.000245494, Final residual = 9.16758e-06, No Iterations 1
smoothSolver:  Solving for Uy, Initial residual = 0.00107286, Final residual = 2.13493e-06, No Iterations 2
DICPCG:  Solving for p, Initial residual = 0.00560947, Final residual = 0.000279441, No Iterations 55
time step continuity errors : sum local = 3.09453e-10, global = -1.61403e-13, cumulative = -4.19979e-10
DICPCG:  Solving for p, Initial residual = 0.00267404, Final residual = 9.00752e-07, No Iterations 205
time step continuity errors : sum local = 9.96441e-13, global = -2.69095e-16, cumulative = -4.1998e-10
ExecutionTime = 6.03 s  ClockTime = 6 s

Time = 2.3

Courant Number mean: 0.00374967 max: 0.0611406
smoothSolver:  Solving for Ux, Initial residual = 0.000238669, Final residual = 8.87867e-06, No Iterations 1
smoothSolver:  Solving for Uy, Initial residual = 0.00105032, Final residual = 2.08235e-06, No Iterations 2
DICPCG:  Solving for p, Initial residual = 0.00538422, Final residual = 0.000259484, No Iterations 56
time step continuity errors : sum local = 2.86542e-10, global = -2.78919e-13, cumulative = -4.20258e-10
DICPCG:  Solving for p, Initial residual = 0.00261524, Final residual = 9.03376e-07, No Iterations 205
time step continuity errors : sum local = 9.9647e-13, global = 2.86803e-16, cumulative = -4.20258e-10
ExecutionTime = 6.14 s  ClockTime = 6 s

Time = 2.35

Courant Number mean: 0.00374937 max: 0.0610793
smoothSolver:  Solving for Ux, Initial residual = 0.000232219, Final residual = 8.6049e-06, No Iterations 1
smoothSolver:  Solving for Uy, Initial residual = 0.00102876, Final residual = 2.03043e-06, No Iterations 2
DICPCG:  Solving for p, Initial residual = 0.00513977, Final residual = 0.000250664, No Iterations 56
time step continuity errors : sum local = 2.76009e-10, global = -2.75866e-13, cumulative = -4.20534e-10
DICPCG:  Solving for p, Initial residual = 0.0025363, Final residual = 9.05687e-07, No Iterations 205
time step continuity errors : sum local = 9.96133e-13, global = 5.18141e-16, cumulative = -4.20533e-10
ExecutionTime = 6.25 s  ClockTime = 6 s

Time = 2.4

Courant Number mean: 0.00374908 max: 0.0610142
smoothSolver:  Solving for Ux, Initial residual = 0.000226124, Final residual = 8.34555e-06, No Iterations 1
smoothSolver:  Solving for Uy, Initial residual = 0.00100829, Final residual = 1.98074e-06, No Iterations 2
DICPCG:  Solving for p, Initial residual = 0.00493008, Final residual = 0.000238058, No Iterations 56
time step continuity errors : sum local = 2.61422e-10, global = -2.69127e-13, cumulative = -4.20803e-10
DICPCG:  Solving for p, Initial residual = 0.00246007, Final residual = 9.99204e-07, No Iterations 204
time step continuity errors : sum local = 1.09622e-12, global = 2.67667e-15, cumulative = -4.208e-10
ExecutionTime = 6.36 s  ClockTime = 6 s

Time = 2.45

Courant Number mean: 0.0037488 max: 0.0609456
smoothSolver:  Solving for Ux, Initial residual = 0.000220338, Final residual = 8.09901e-06, No Iterations 1
smoothSolver:  Solving for Uy, Initial residual = 0.000988808, Final residual = 1.93313e-06, No Iterations 2
DICPCG:  Solving for p, Initial residual = 0.00477148, Final residual = 0.000230396, No Iterations 56
time step continuity errors : sum local = 2.52381e-10, global = -2.6108e-13, cumulative = -4.21061e-10
DICPCG:  Solving for p, Initial residual = 0.0023979, Final residual = 9.27606e-07, No Iterations 205
time step continuity errors : sum local = 1.01516e-12, global = 1.50492e-15, cumulative = -4.2106e-10
ExecutionTime = 6.47 s  ClockTime = 7 s

Time = 2.5

Courant Number mean: 0.00374852 max: 0.0608738
smoothSolver:  Solving for Ux, Initial residual = 0.000214858, Final residual = 7.86545e-06, No Iterations 1
smoothSolver:  Solving for Uy, Initial residual = 0.000970278, Final residual = 1.88737e-06, No Iterations 2
DICPCG:  Solving for p, Initial residual = 0.00473296, Final residual = 0.000234203, No Iterations 55
time step continuity errors : sum local = 2.55908e-10, global = -2.41831e-13, cumulative = -4.21301e-10
DICPCG:  Solving for p, Initial residual = 0.00234339, Final residual = 9.27415e-07, No Iterations 205
time step continuity errors : sum local = 1.01234e-12, global = 1.73641e-15, cumulative = -4.213e-10
ExecutionTime = 6.76 s  ClockTime = 7 s

Time = 2.55

Courant Number mean: 0.00374825 max: 0.0607988
smoothSolver:  Solving for Ux, Initial residual = 0.000209664, Final residual = 7.64434e-06, No Iterations 1
smoothSolver:  Solving for Uy, Initial residual = 0.000952616, Final residual = 1.84325e-06, No Iterations 2
DICPCG:  Solving for p, Initial residual = 0.0045921, Final residual = 0.000227058, No Iterations 55
time step continuity errors : sum local = 2.47436e-10, global = -2.34414e-13, cumulative = -4.21534e-10
DICPCG:  Solving for p, Initial residual = 0.00228357, Final residual = 9.70189e-07, No Iterations 204
time step continuity errors : sum local = 1.05609e-12, global = 3.34356e-15, cumulative = -4.21531e-10
ExecutionTime = 6.87 s  ClockTime = 7 s

Time = 2.6

Courant Number mean: 0.00374798 max: 0.060721
smoothSolver:  Solving for Ux, Initial residual = 0.000204715, Final residual = 7.43352e-06, No Iterations 1
smoothSolver:  Solving for Uy, Initial residual = 0.000935949, Final residual = 1.80211e-06, No Iterations 2
DICPCG:  Solving for p, Initial residual = 0.00436384, Final residual = 0.000209709, No Iterations 56
time step continuity errors : sum local = 2.27942e-10, global = -2.39101e-13, cumulative = -4.2177e-10
DICPCG:  Solving for p, Initial residual = 0.00222408, Final residual = 9.06882e-07, No Iterations 205
time step continuity errors : sum local = 9.84788e-13, global = 2.61352e-15, cumulative = -4.21767e-10
ExecutionTime = 6.98 s  ClockTime = 7 s

Time = 2.65

Courant Number mean: 0.00374772 max: 0.0606405
smoothSolver:  Solving for Ux, Initial residual = 0.00020002, Final residual = 7.23372e-06, No Iterations 1
smoothSolver:  Solving for Uy, Initial residual = 0.000919907, Final residual = 1.76178e-06, No Iterations 2
DICPCG:  Solving for p, Initial residual = 0.0042634, Final residual = 0.000203817, No Iterations 56
time step continuity errors : sum local = 2.21e-10, global = -2.34981e-13, cumulative = -4.22002e-10
DICPCG:  Solving for p, Initial residual = 0.00217277, Final residual = 9.91742e-07, No Iterations 204
time step continuity errors : sum local = 1.07431e-12, global = 5.03109e-15, cumulative = -4.21997e-10
ExecutionTime = 7.09 s  ClockTime = 7 s

Time = 2.7

Courant Number mean: 0.00374746 max: 0.0605576
smoothSolver:  Solving for Ux, Initial residual = 0.000195553, Final residual = 7.04354e-06, No Iterations 1
smoothSolver:  Solving for Uy, Initial residual = 0.000904601, Final residual = 1.72301e-06, No Iterations 2
DICPCG:  Solving for p, Initial residual = 0.00414834, Final residual = 0.000205998, No Iterations 55
time step continuity errors : sum local = 2.22844e-10, global = -2.1542e-13, cumulative = -4.22213e-10
DICPCG:  Solving for p, Initial residual = 0.00211928, Final residual = 9.14487e-07, No Iterations 205
time step continuity errors : sum local = 9.88398e-13, global = 3.17218e-15, cumulative = -4.22209e-10
ExecutionTime = 7.19 s  ClockTime = 7 s

Time = 2.75

Courant Number mean: 0.0037472 max: 0.0604722
smoothSolver:  Solving for Ux, Initial residual = 0.0001913, Final residual = 6.86238e-06, No Iterations 1
smoothSolver:  Solving for Uy, Initial residual = 0.000889885, Final residual = 1.68577e-06, No Iterations 2
DICPCG:  Solving for p, Initial residual = 0.00402551, Final residual = 0.000199104, No Iterations 55
time step continuity errors : sum local = 2.14906e-10, global = -2.10605e-13, cumulative = -4.2242e-10
DICPCG:  Solving for p, Initial residual = 0.00206895, Final residual = 9.10712e-07, No Iterations 205
time step continuity errors : sum local = 9.82112e-13, global = 3.27006e-15, cumulative = -4.22417e-10
ExecutionTime = 7.31 s  ClockTime = 7 s

Time = 2.8

Courant Number mean: 0.00374695 max: 0.0603848
smoothSolver:  Solving for Ux, Initial residual = 0.000187246, Final residual = 6.68982e-06, No Iterations 1
smoothSolver:  Solving for Uy, Initial residual = 0.000875798, Final residual = 1.64978e-06, No Iterations 2
DICPCG:  Solving for p, Initial residual = 0.00396507, Final residual = 0.000192795, No Iterations 55
time step continuity errors : sum local = 2.07622e-10, global = -2.05239e-13, cumulative = -4.22622e-10
DICPCG:  Solving for p, Initial residual = 0.00203042, Final residual = 9.05916e-07, No Iterations 205
time step continuity errors : sum local = 9.74661e-13, global = 4.11765e-15, cumulative = -4.22618e-10
ExecutionTime = 7.43 s  ClockTime = 8 s

Time = 2.85

Courant Number mean: 0.00374671 max: 0.0602953
smoothSolver:  Solving for Ux, Initial residual = 0.000183374, Final residual = 6.52531e-06, No Iterations 1
smoothSolver:  Solving for Uy, Initial residual = 0.000862301, Final residual = 1.61505e-06, No Iterations 2
DICPCG:  Solving for p, Initial residual = 0.00384513, Final residual = 0.000188176, No Iterations 55
time step continuity errors : sum local = 2.02185e-10, global = -2.00083e-13, cumulative = -4.22818e-10
DICPCG:  Solving for p, Initial residual = 0.00198101, Final residual = 9.07377e-07, No Iterations 205
time step continuity errors : sum local = 9.74045e-13, global = 3.7089e-15, cumulative = -4.22814e-10
ExecutionTime = 7.53 s  ClockTime = 8 s

Time = 2.9

Courant Number mean: 0.00374646 max: 0.0602039
smoothSolver:  Solving for Ux, Initial residual = 0.000179684, Final residual = 6.36784e-06, No Iterations 1
smoothSolver:  Solving for Uy, Initial residual = 0.000849453, Final residual = 1.58195e-06, No Iterations 2
DICPCG:  Solving for p, Initial residual = 0.00375088, Final residual = 0.000182749, No Iterations 55
time step continuity errors : sum local = 1.9592e-10, global = -1.94555e-13, cumulative = -4.23009e-10
DICPCG:  Solving for p, Initial residual = 0.00193895, Final residual = 9.25513e-07, No Iterations 205
time step continuity errors : sum local = 9.9132e-13, global = 4.83384e-15, cumulative = -4.23004e-10
ExecutionTime = 7.64 s  ClockTime = 8 s

Time = 2.95

Courant Number mean: 0.00374623 max: 0.0601109
smoothSolver:  Solving for Ux, Initial residual = 0.000176164, Final residual = 6.21752e-06, No Iterations 1
smoothSolver:  Solving for Uy, Initial residual = 0.000837059, Final residual = 1.54975e-06, No Iterations 2
DICPCG:  Solving for p, Initial residual = 0.00366597, Final residual = 0.000177779, No Iterations 55
time step continuity errors : sum local = 1.90184e-10, global = -1.89745e-13, cumulative = -4.23194e-10
DICPCG:  Solving for p, Initial residual = 0.00189855, Final residual = 9.95265e-07, No Iterations 204
time step continuity errors : sum local = 1.06379e-12, global = 7.4349e-15, cumulative = -4.23186e-10
ExecutionTime = 7.76 s  ClockTime = 8 s

Time = 3

Courant Number mean: 0.00374599 max: 0.0600162
smoothSolver:  Solving for Ux, Initial residual = 0.000172798, Final residual = 6.07379e-06, No Iterations 1
smoothSolver:  Solving for Uy, Initial residual = 0.000825142, Final residual = 1.51868e-06, No Iterations 2
DICPCG:  Solving for p, Initial residual = 0.00359126, Final residual = 0.000173612, No Iterations 55
time step continuity errors : sum local = 1.85342e-10, global = -1.84685e-13, cumulative = -4.23371e-10
DICPCG:  Solving for p, Initial residual = 0.00186056, Final residual = 9.87222e-07, No Iterations 204
time step continuity errors : sum local = 1.05303e-12, global = 7.70169e-15, cumulative = -4.23363e-10
ExecutionTime = 8.06 s  ClockTime = 8 s

Time = 3.05

Courant Number mean: 0.00374576 max: 0.05992
smoothSolver:  Solving for Ux, Initial residual = 0.000169583, Final residual = 5.93622e-06, No Iterations 1
smoothSolver:  Solving for Uy, Initial residual = 0.000813679, Final residual = 1.48864e-06, No Iterations 2
DICPCG:  Solving for p, Initial residual = 0.00356331, Final residual = 0.000173139, No Iterations 55
time step continuity errors : sum local = 1.84441e-10, global = -1.80035e-13, cumulative = -4.23543e-10
DICPCG:  Solving for p, Initial residual = 0.00182888, Final residual = 9.42785e-07, No Iterations 205
time step continuity errors : sum local = 1.00337e-12, global = 6.03977e-15, cumulative = -4.23537e-10
ExecutionTime = 8.16 s  ClockTime = 8 s

Time = 3.1

Courant Number mean: 0.00374553 max: 0.0598225
smoothSolver:  Solving for Ux, Initial residual = 0.000166504, Final residual = 5.80469e-06, No Iterations 1
smoothSolver:  Solving for Uy, Initial residual = 0.000802719, Final residual = 1.45915e-06, No Iterations 2
DICPCG:  Solving for p, Initial residual = 0.00345954, Final residual = 0.00016618, No Iterations 55
time step continuity errors : sum local = 1.7665e-10, global = -1.77305e-13, cumulative = -4.23715e-10
DICPCG:  Solving for p, Initial residual = 0.00178943, Final residual = 9.96064e-07, No Iterations 204
time step continuity errors : sum local = 1.05794e-12, global = 8.69811e-15, cumulative = -4.23706e-10
ExecutionTime = 8.27 s  ClockTime = 8 s

Time = 3.15

Courant Number mean: 0.0037453 max: 0.0597238
smoothSolver:  Solving for Ux, Initial residual = 0.000163552, Final residual = 5.67853e-06, No Iterations 1
smoothSolver:  Solving for Uy, Initial residual = 0.000792071, Final residual = 1.43078e-06, No Iterations 2
DICPCG:  Solving for p, Initial residual = 0.00340146, Final residual = 0.000162647, No Iterations 55
time step continuity errors : sum local = 1.72536e-10, global = -1.71457e-13, cumulative = -4.23877e-10
DICPCG:  Solving for p, Initial residual = 0.00176208, Final residual = 9.81309e-07, No Iterations 204
time step continuity errors : sum local = 1.04003e-12, global = 7.97596e-15, cumulative = -4.23869e-10
ExecutionTime = 8.38 s  ClockTime = 9 s

Time = 3.2

Courant Number mean: 0.00374508 max: 0.0596239
smoothSolver:  Solving for Ux, Initial residual = 0.000160721, Final residual = 5.55727e-06, No Iterations 1
smoothSolver:  Solving for Uy, Initial residual = 0.000781852, Final residual = 1.40378e-06, No Iterations 2
DICPCG:  Solving for p, Initial residual = 0.0033603, Final residual = 0.000161014, No Iterations 55
time step continuity errors : sum local = 1.70434e-10, global = -1.67292e-13, cumulative = -4.24037e-10
DICPCG:  Solving for p, Initial residual = 0.00173061, Final residual = 9.8492e-07, No Iterations 204
time step continuity errors : sum local = 1.04156e-12, global = 8.74683e-15, cumulative = -4.24028e-10
ExecutionTime = 8.48 s  ClockTime = 9 s

Time = 3.25

Courant Number mean: 0.00374486 max: 0.0595229
smoothSolver:  Solving for Ux, Initial residual = 0.000158005, Final residual = 5.44103e-06, No Iterations 1
smoothSolver:  Solving for Uy, Initial residual = 0.00077201, Final residual = 1.37731e-06, No Iterations 2
DICPCG:  Solving for p, Initial residual = 0.00325793, Final residual = 0.000156285, No Iterations 55
time step continuity errors : sum local = 1.6507e-10, global = -1.64135e-13, cumulative = -4.24192e-10
DICPCG:  Solving for p, Initial residual = 0.00169552, Final residual = 9.94981e-07, No Iterations 204
time step continuity errors : sum local = 1.04994e-12, global = 9.82518e-15, cumulative = -4.24182e-10
ExecutionTime = 8.59 s  ClockTime = 9 s

Time = 3.3

Courant Number mean: 0.00374465 max: 0.059421
smoothSolver:  Solving for Ux, Initial residual = 0.000155393, Final residual = 5.32935e-06, No Iterations 1
smoothSolver:  Solving for Uy, Initial residual = 0.000762478, Final residual = 1.35173e-06, No Iterations 2
DICPCG:  Solving for p, Initial residual = 0.00318233, Final residual = 0.000151177, No Iterations 55
time step continuity errors : sum local = 1.59342e-10, global = -1.60507e-13, cumulative = -4.24343e-10
DICPCG:  Solving for p, Initial residual = 0.00166281, Final residual = 9.81287e-07, No Iterations 204
time step continuity errors : sum local = 1.0334e-12, global = 9.23543e-15, cumulative = -4.24333e-10
ExecutionTime = 8.7 s  ClockTime = 9 s

Time = 3.35

Courant Number mean: 0.00374444 max: 0.0593182
smoothSolver:  Solving for Ux, Initial residual = 0.000152875, Final residual = 5.22174e-06, No Iterations 1
smoothSolver:  Solving for Uy, Initial residual = 0.000753307, Final residual = 1.32727e-06, No Iterations 2
DICPCG:  Solving for p, Initial residual = 0.00310928, Final residual = 0.000147653, No Iterations 55
time step continuity errors : sum local = 1.55317e-10, global = -1.57352e-13, cumulative = -4.24491e-10
DICPCG:  Solving for p, Initial residual = 0.00163452, Final residual = 9.71893e-07, No Iterations 204
time step continuity errors : sum local = 1.02147e-12, global = 9.83866e-15, cumulative = -4.24481e-10
ExecutionTime = 8.81 s  ClockTime = 9 s

Time = 3.4

Courant Number mean: 0.00374423 max: 0.0592146
smoothSolver:  Solving for Ux, Initial residual = 0.000150453, Final residual = 5.11818e-06, No Iterations 1
smoothSolver:  Solving for Uy, Initial residual = 0.000744469, Final residual = 1.30315e-06, No Iterations 2
DICPCG:  Solving for p, Initial residual = 0.00309982, Final residual = 0.000144968, No Iterations 55
time step continuity errors : sum local = 1.52199e-10, global = -1.53386e-13, cumulative = -4.24634e-10
DICPCG:  Solving for p, Initial residual = 0.00161129, Final residual = 9.78834e-07, No Iterations 204
time step continuity errors : sum local = 1.02683e-12, global = 1.01943e-14, cumulative = -4.24624e-10
ExecutionTime = 8.92 s  ClockTime = 9 s

Time = 3.45

Courant Number mean: 0.00374402 max: 0.0591103
smoothSolver:  Solving for Ux, Initial residual = 0.000148121, Final residual = 5.01855e-06, No Iterations 1
smoothSolver:  Solving for Uy, Initial residual = 0.000735937, Final residual = 1.27974e-06, No Iterations 2
DICPCG:  Solving for p, Initial residual = 0.00302784, Final residual = 0.000145608, No Iterations 55
time step continuity errors : sum local = 1.52578e-10, global = -1.49969e-13, cumulative = -4.24774e-10
DICPCG:  Solving for p, Initial residual = 0.00158706, Final residual = 9.68055e-07, No Iterations 204
time step continuity errors : sum local = 1.01352e-12, global = 1.02235e-14, cumulative = -4.24764e-10
ExecutionTime = 9.02 s  ClockTime = 9 s

Time = 3.5

Courant Number mean: 0.00374381 max: 0.0590054
smoothSolver:  Solving for Ux, Initial residual = 0.000145886, Final residual = 4.92326e-06, No Iterations 1
smoothSolver:  Solving for Uy, Initial residual = 0.000727578, Final residual = 1.25715e-06, No Iterations 2
DICPCG:  Solving for p, Initial residual = 0.00300057, Final residual = 0.000145406, No Iterations 55
time step continuity errors : sum local = 1.52054e-10, global = -1.4733e-13, cumulative = -4.24911e-10
DICPCG:  Solving for p, Initial residual = 0.00156866, Final residual = 9.68758e-07, No Iterations 204
time step continuity errors : sum local = 1.01211e-12, global = 1.07233e-14, cumulative = -4.249e-10
ExecutionTime = 9.32 s  ClockTime = 9 s

Time = 3.55

Courant Number mean: 0.00374361 max: 0.0588999
smoothSolver:  Solving for Ux, Initial residual = 0.000143735, Final residual = 4.83133e-06, No Iterations 1
smoothSolver:  Solving for Uy, Initial residual = 0.000719591, Final residual = 1.23514e-06, No Iterations 2
DICPCG:  Solving for p, Initial residual = 0.00284588, Final residual = 0.000135967, No Iterations 55
time step continuity errors : sum local = 1.419e-10, global = -1.43602e-13, cumulative = -4.25044e-10
DICPCG:  Solving for p, Initial residual = 0.00152903, Final residual = 9.64352e-07, No Iterations 204
time step continuity errors : sum local = 1.0056e-12, global = 1.01013e-14, cumulative = -4.25034e-10
ExecutionTime = 9.43 s  ClockTime = 10 s

Time = 3.6

Courant Number mean: 0.00374341 max: 0.0587938
smoothSolver:  Solving for Ux, Initial residual = 0.000141653, Final residual = 4.74241e-06, No Iterations 1
smoothSolver:  Solving for Uy, Initial residual = 0.000711828, Final residual = 1.21381e-06, No Iterations 2
DICPCG:  Solving for p, Initial residual = 0.00278875, Final residual = 0.000133261, No Iterations 55
time step continuity errors : sum local = 1.38815e-10, global = -1.41388e-13, cumulative = -4.25175e-10
DICPCG:  Solving for p, Initial residual = 0.00150479, Final residual = 9.49651e-07, No Iterations 204
time step continuity errors : sum local = 9.88431e-13, global = 1.06557e-14, cumulative = -4.25165e-10
ExecutionTime = 9.54 s  ClockTime = 10 s

Time = 3.65

Courant Number mean: 0.00374321 max: 0.0586874
smoothSolver:  Solving for Ux, Initial residual = 0.000139649, Final residual = 4.65655e-06, No Iterations 1
smoothSolver:  Solving for Uy, Initial residual = 0.000704289, Final residual = 1.19313e-06, No Iterations 2
DICPCG:  Solving for p, Initial residual = 0.00273856, Final residual = 0.000130736, No Iterations 55
time step continuity errors : sum local = 1.35934e-10, global = -1.38422e-13, cumulative = -4.25303e-10
DICPCG:  Solving for p, Initial residual = 0.0014817, Final residual = 9.44782e-07, No Iterations 204
time step continuity errors : sum local = 9.81553e-13, global = 1.09284e-14, cumulative = -4.25292e-10
ExecutionTime = 9.65 s  ClockTime = 10 s

Time = 3.7

Courant Number mean: 0.00374302 max: 0.0585805
smoothSolver:  Solving for Ux, Initial residual = 0.000137714, Final residual = 4.57371e-06, No Iterations 1
smoothSolver:  Solving for Uy, Initial residual = 0.000696971, Final residual = 1.17304e-06, No Iterations 2
DICPCG:  Solving for p, Initial residual = 0.00269156, Final residual = 0.000128365, No Iterations 55
time step continuity errors : sum local = 1.33225e-10, global = -1.35686e-13, cumulative = -4.25428e-10
DICPCG:  Solving for p, Initial residual = 0.00145949, Final residual = 9.4906e-07, No Iterations 204
time step continuity errors : sum local = 9.84203e-13, global = 1.12392e-14, cumulative = -4.25417e-10
ExecutionTime = 9.75 s  ClockTime = 10 s

Time = 3.75

Courant Number mean: 0.00374282 max: 0.0584733
smoothSolver:  Solving for Ux, Initial residual = 0.000135843, Final residual = 4.49372e-06, No Iterations 1
smoothSolver:  Solving for Uy, Initial residual = 0.000689875, Final residual = 1.1535e-06, No Iterations 2
DICPCG:  Solving for p, Initial residual = 0.00265995, Final residual = 0.000126584, No Iterations 55
time step continuity errors : sum local = 1.3114e-10, global = -1.33064e-13, cumulative = -4.2555e-10
DICPCG:  Solving for p, Initial residual = 0.00143922, Final residual = 9.38587e-07, No Iterations 204
time step continuity errors : sum local = 9.71625e-13, global = 1.08694e-14, cumulative = -4.25539e-10
ExecutionTime = 9.86 s  ClockTime = 10 s

Time = 3.8

Courant Number mean: 0.00374263 max: 0.0583658
smoothSolver:  Solving for Ux, Initial residual = 0.000134037, Final residual = 4.41649e-06, No Iterations 1
smoothSolver:  Solving for Uy, Initial residual = 0.000682999, Final residual = 1.1345e-06, No Iterations 2
DICPCG:  Solving for p, Initial residual = 0.0026215, Final residual = 0.000124319, No Iterations 55
time step continuity errors : sum local = 1.28565e-10, global = -1.30712e-13, cumulative = -4.2567e-10
DICPCG:  Solving for p, Initial residual = 0.00141912, Final residual = 9.37899e-07, No Iterations 204
time step continuity errors : sum local = 9.69152e-13, global = 1.10846e-14, cumulative = -4.25658e-10
ExecutionTime = 9.97 s  ClockTime = 10 s

Time = 3.85

Courant Number mean: 0.00374244 max: 0.0582581
smoothSolver:  Solving for Ux, Initial residual = 0.000132283, Final residual = 4.34166e-06, No Iterations 1
smoothSolver:  Solving for Uy, Initial residual = 0.000676366, Final residual = 1.11605e-06, No Iterations 2
DICPCG:  Solving for p, Initial residual = 0.0025566, Final residual = 0.000121723, No Iterations 55
time step continuity errors : sum local = 1.25657e-10, global = -1.27879e-13, cumulative = -4.25786e-10
DICPCG:  Solving for p, Initial residual = 0.00139671, Final residual = 9.34081e-07, No Iterations 204
time step continuity errors : sum local = 9.63534e-13, global = 1.1192e-14, cumulative = -4.25775e-10
ExecutionTime = 10.08 s  ClockTime = 10 s

Time = 3.9

Courant Number mean: 0.00374225 max: 0.0581502
smoothSolver:  Solving for Ux, Initial residual = 0.000130587, Final residual = 4.26934e-06, No Iterations 1
smoothSolver:  Solving for Uy, Initial residual = 0.000669883, Final residual = 9.90809e-06, No Iterations 1
DICPCG:  Solving for p, Initial residual = 0.00247514, Final residual = 0.000123248, No Iterations 56
time step continuity errors : sum local = 1.27015e-10, global = -1.30195e-13, cumulative = -4.25905e-10
DICPCG:  Solving for p, Initial residual = 0.00138714, Final residual = 9.97838e-07, No Iterations 203
time step continuity errors : sum local = 1.02756e-12, global = 1.28052e-14, cumulative = -4.25893e-10
ExecutionTime = 10.19 s  ClockTime = 10 s

Time = 3.95

Courant Number mean: 0.00374207 max: 0.0580423
smoothSolver:  Solving for Ux, Initial residual = 0.000128873, Final residual = 4.19971e-06, No Iterations 1
smoothSolver:  Solving for Uy, Initial residual = 0.000663212, Final residual = 9.80236e-06, No Iterations 1
DICPCG:  Solving for p, Initial residual = 0.0024547, Final residual = 0.000117955, No Iterations 55
time step continuity errors : sum local = 1.21357e-10, global = -1.28954e-13, cumulative = -4.26022e-10
DICPCG:  Solving for p, Initial residual = 0.00135486, Final residual = 9.59296e-07, No Iterations 202
time step continuity errors : sum local = 9.86241e-13, global = 1.15559e-14, cumulative = -4.2601e-10
ExecutionTime = 10.29 s  ClockTime = 10 s

Time = 4

Courant Number mean: 0.00374188 max: 0.0579343
smoothSolver:  Solving for Ux, Initial residual = 0.000127283, Final residual = 4.13204e-06, No Iterations 1
smoothSolver:  Solving for Uy, Initial residual = 0.000657114, Final residual = 9.6733e-06, No Iterations 1
DICPCG:  Solving for p, Initial residual = 0.00242754, Final residual = 0.000116183, No Iterations 55
time step continuity errors : sum local = 1.19338e-10, global = -1.25495e-13, cumulative = -4.26135e-10
DICPCG:  Solving for p, Initial residual = 0.00133852, Final residual = 9.20412e-07, No Iterations 202
time step continuity errors : sum local = 9.44698e-13, global = 1.03026e-14, cumulative = -4.26125e-10
ExecutionTime = 10.59 s  ClockTime = 11 s

Time = 4.05

Courant Number mean: 0.0037417 max: 0.0578262
smoothSolver:  Solving for Ux, Initial residual = 0.000125739, Final residual = 4.06659e-06, No Iterations 1
smoothSolver:  Solving for Uy, Initial residual = 0.000651144, Final residual = 9.54624e-06, No Iterations 1
DICPCG:  Solving for p, Initial residual = 0.00241962, Final residual = 0.000114763, No Iterations 55
time step continuity errors : sum local = 1.17692e-10, global = -1.23793e-13, cumulative = -4.26249e-10
DICPCG:  Solving for p, Initial residual = 0.00132138, Final residual = 8.96438e-07, No Iterations 202
time step continuity errors : sum local = 9.18684e-13, global = 9.80823e-15, cumulative = -4.26239e-10
ExecutionTime = 10.7 s  ClockTime = 11 s

Time = 4.1

Courant Number mean: 0.00374152 max: 0.0577181
smoothSolver:  Solving for Ux, Initial residual = 0.000124236, Final residual = 4.00309e-06, No Iterations 1
smoothSolver:  Solving for Uy, Initial residual = 0.000645332, Final residual = 9.42086e-06, No Iterations 1
DICPCG:  Solving for p, Initial residual = 0.00238694, Final residual = 0.000113869, No Iterations 55
time step continuity errors : sum local = 1.16598e-10, global = -1.21844e-13, cumulative = -4.26361e-10
DICPCG:  Solving for p, Initial residual = 0.00130657, Final residual = 8.79014e-07, No Iterations 202
time step continuity errors : sum local = 8.99479e-13, global = 9.46439e-15, cumulative = -4.26352e-10
ExecutionTime = 10.81 s  ClockTime = 11 s

Time = 4.15

Courant Number mean: 0.00374134 max: 0.05761
smoothSolver:  Solving for Ux, Initial residual = 0.00012278, Final residual = 3.9416e-06, No Iterations 1
smoothSolver:  Solving for Uy, Initial residual = 0.000639668, Final residual = 9.29951e-06, No Iterations 1
DICPCG:  Solving for p, Initial residual = 0.00250096, Final residual = 0.000118359, No Iterations 54
time step continuity errors : sum local = 1.21003e-10, global = -1.11436e-13, cumulative = -4.26463e-10
DICPCG:  Solving for p, Initial residual = 0.00130748, Final residual = 8.539e-07, No Iterations 202
time step continuity errors : sum local = 8.72313e-13, global = 9.34976e-15, cumulative = -4.26454e-10
ExecutionTime = 10.91 s  ClockTime = 11 s

Time = 4.2

Courant Number mean: 0.00374116 max: 0.0575019
smoothSolver:  Solving for Ux, Initial residual = 0.000121356, Final residual = 3.88142e-06, No Iterations 1
smoothSolver:  Solving for Uy, Initial residual = 0.000634255, Final residual = 9.18476e-06, No Iterations 1
DICPCG:  Solving for p, Initial residual = 0.00230642, Final residual = 0.000110427, No Iterations 55
time step continuity errors : sum local = 1.12708e-10, global = -1.17022e-13, cumulative = -4.26571e-10
DICPCG:  Solving for p, Initial residual = 0.00127478, Final residual = 9.9134e-07, No Iterations 201
time step continuity errors : sum local = 1.01106e-12, global = 9.15672e-15, cumulative = -4.26561e-10
ExecutionTime = 11.01 s  ClockTime = 11 s

Time = 4.25

Courant Number mean: 0.00374099 max: 0.0573939
smoothSolver:  Solving for Ux, Initial residual = 0.000119979, Final residual = 3.82325e-06, No Iterations 1
smoothSolver:  Solving for Uy, Initial residual = 0.000628977, Final residual = 9.07208e-06, No Iterations 1
DICPCG:  Solving for p, Initial residual = 0.00232471, Final residual = 0.000114876, No Iterations 54
time step continuity errors : sum local = 1.17055e-10, global = -1.06286e-13, cumulative = -4.26668e-10
DICPCG:  Solving for p, Initial residual = 0.00127168, Final residual = 9.66413e-07, No Iterations 201
time step continuity errors : sum local = 9.83972e-13, global = 8.56479e-15, cumulative = -4.26659e-10
ExecutionTime = 11.12 s  ClockTime = 11 s

Time = 4.3

Courant Number mean: 0.00374082 max: 0.057286
smoothSolver:  Solving for Ux, Initial residual = 0.000118642, Final residual = 3.76676e-06, No Iterations 1
smoothSolver:  Solving for Uy, Initial residual = 0.000623845, Final residual = 8.96418e-06, No Iterations 1
DICPCG:  Solving for p, Initial residual = 0.00224548, Final residual = 0.000111664, No Iterations 54
time step continuity errors : sum local = 1.13605e-10, global = -1.06204e-13, cumulative = -4.26765e-10
DICPCG:  Solving for p, Initial residual = 0.00125194, Final residual = 9.12948e-07, No Iterations 201
time step continuity errors : sum local = 9.28204e-13, global = 6.97945e-15, cumulative = -4.26758e-10
ExecutionTime = 11.23 s  ClockTime = 11 s

Time = 4.35

Courant Number mean: 0.00374064 max: 0.0571781
smoothSolver:  Solving for Ux, Initial residual = 0.00011734, Final residual = 3.71177e-06, No Iterations 1
smoothSolver:  Solving for Uy, Initial residual = 0.000618738, Final residual = 8.85266e-06, No Iterations 1
DICPCG:  Solving for p, Initial residual = 0.00218222, Final residual = 0.000108781, No Iterations 54
time step continuity errors : sum local = 1.10506e-10, global = -1.06384e-13, cumulative = -4.26865e-10
DICPCG:  Solving for p, Initial residual = 0.00123004, Final residual = 9.09979e-07, No Iterations 201
time step continuity errors : sum local = 9.2376e-13, global = 7.36715e-15, cumulative = -4.26857e-10
ExecutionTime = 11.33 s  ClockTime = 12 s

Time = 4.4

Courant Number mean: 0.00374047 max: 0.0570704
smoothSolver:  Solving for Ux, Initial residual = 0.000116074, Final residual = 3.65833e-06, No Iterations 1
smoothSolver:  Solving for Uy, Initial residual = 0.000613823, Final residual = 8.74655e-06, No Iterations 1
DICPCG:  Solving for p, Initial residual = 0.00221534, Final residual = 0.000107887, No Iterations 54
time step continuity errors : sum local = 1.09426e-10, global = -1.02914e-13, cumulative = -4.2696e-10
DICPCG:  Solving for p, Initial residual = 0.00122105, Final residual = 9.00469e-07, No Iterations 201
time step continuity errors : sum local = 9.12632e-13, global = 7.38072e-15, cumulative = -4.26953e-10
ExecutionTime = 11.44 s  ClockTime = 12 s

Time = 4.45

Courant Number mean: 0.00374031 max: 0.0569629
smoothSolver:  Solving for Ux, Initial residual = 0.000114841, Final residual = 3.6063e-06, No Iterations 1
smoothSolver:  Solving for Uy, Initial residual = 0.000609069, Final residual = 8.64455e-06, No Iterations 1
DICPCG:  Solving for p, Initial residual = 0.0021406, Final residual = 0.000106533, No Iterations 54
time step continuity errors : sum local = 1.0789e-10, global = -1.01609e-13, cumulative = -4.27055e-10
DICPCG:  Solving for p, Initial residual = 0.00120341, Final residual = 8.58426e-07, No Iterations 201
time step continuity errors : sum local = 8.68788e-13, global = 5.91916e-15, cumulative = -4.27049e-10
ExecutionTime = 11.55 s  ClockTime = 12 s

Time = 4.5

Courant Number mean: 0.00374014 max: 0.0568555
smoothSolver:  Solving for Ux, Initial residual = 0.000113639, Final residual = 3.55559e-06, No Iterations 1
smoothSolver:  Solving for Uy, Initial residual = 0.00060434, Final residual = 8.54156e-06, No Iterations 1
DICPCG:  Solving for p, Initial residual = 0.00213315, Final residual = 0.000105342, No Iterations 54
time step continuity errors : sum local = 1.06531e-10, global = -1.01344e-13, cumulative = -4.2715e-10
DICPCG:  Solving for p, Initial residual = 0.00119139, Final residual = 8.40092e-07, No Iterations 201
time step continuity errors : sum local = 8.49012e-13, global = 5.62402e-15, cumulative = -4.27144e-10
ExecutionTime = 11.84 s  ClockTime = 12 s

Time = 4.55

Courant Number mean: 0.00373997 max: 0.0567643
smoothSolver:  Solving for Ux, Initial residual = 0.000112466, Final residual = 3.50612e-06, No Iterations 1
smoothSolver:  Solving for Uy, Initial residual = 0.000599755, Final residual = 8.44108e-06, No Iterations 1
DICPCG:  Solving for p, Initial residual = 0.00211168, Final residual = 0.000105039, No Iterations 54
time step continuity errors : sum local = 1.06072e-10, global = -9.8989e-14, cumulative = -4.27243e-10
DICPCG:  Solving for p, Initial residual = 0.0011812, Final residual = 8.277e-07, No Iterations 201
time step continuity errors : sum local = 8.35264e-13, global = 5.12529e-15, cumulative = -4.27238e-10
ExecutionTime = 11.95 s  ClockTime = 12 s

Time = 4.6

Courant Number mean: 0.00373981 max: 0.0567067
smoothSolver:  Solving for Ux, Initial residual = 0.000111332, Final residual = 3.45843e-06, No Iterations 1
smoothSolver:  Solving for Uy, Initial residual = 0.000595172, Final residual = 8.34148e-06, No Iterations 1
DICPCG:  Solving for p, Initial residual = 0.00212146, Final residual = 0.000104611, No Iterations 54
time step continuity errors : sum local = 1.05479e-10, global = -9.8399e-14, cumulative = -4.27337e-10
DICPCG:  Solving for p, Initial residual = 0.00117172, Final residual = 8.15883e-07, No Iterations 201
time step continuity errors : sum local = 8.22065e-13, global = 5.01498e-15, cumulative = -4.27332e-10
ExecutionTime = 12.05 s  ClockTime = 12 s

Time = 4.65

Courant Number mean: 0.00373965 max: 0.0566487
smoothSolver:  Solving for Ux, Initial residual = 0.000110226, Final residual = 3.41193e-06, No Iterations 1
smoothSolver:  Solving for Uy, Initial residual = 0.000590712, Final residual = 8.24435e-06, No Iterations 1
DICPCG:  Solving for p, Initial residual = 0.00205118, Final residual = 0.000102405, No Iterations 54
time step continuity errors : sum local = 1.03098e-10, global = -9.65896e-14, cumulative = -4.27428e-10
DICPCG:  Solving for p, Initial residual = 0.001153, Final residual = 9.86403e-07, No Iterations 200
time step continuity errors : sum local = 9.92377e-13, global = 4.24451e-15, cumulative = -4.27424e-10
ExecutionTime = 12.16 s  ClockTime = 12 s

Time = 4.7

Courant Number mean: 0.00373948 max: 0.0565904
smoothSolver:  Solving for Ux, Initial residual = 0.000109138, Final residual = 3.36624e-06, No Iterations 1
smoothSolver:  Solving for Uy, Initial residual = 0.000586432, Final residual = 8.14974e-06, No Iterations 1
DICPCG:  Solving for p, Initial residual = 0.00202064, Final residual = 0.000100475, No Iterations 54
time step continuity errors : sum local = 1.01008e-10, global = -9.35388e-14, cumulative = -4.27517e-10
DICPCG:  Solving for p, Initial residual = 0.00113731, Final residual = 9.66262e-07, No Iterations 200
time step continuity errors : sum local = 9.7075e-13, global = 3.55349e-15, cumulative = -4.27514e-10
ExecutionTime = 12.26 s  ClockTime = 12 s

Time = 4.75

Courant Number mean: 0.00373933 max: 0.0565318
smoothSolver:  Solving for Ux, Initial residual = 0.000108085, Final residual = 3.32194e-06, No Iterations 1
smoothSolver:  Solving for Uy, Initial residual = 0.000582191, Final residual = 8.05727e-06, No Iterations 1
DICPCG:  Solving for p, Initial residual = 0.00200202, Final residual = 9.80403e-05, No Iterations 54
time step continuity errors : sum local = 9.84223e-11, global = -9.37705e-14, cumulative = -4.27608e-10
DICPCG:  Solving for p, Initial residual = 0.00112969, Final residual = 9.4267e-07, No Iterations 200
time step continuity errors : sum local = 9.45729e-13, global = 3.25571e-15, cumulative = -4.27604e-10
ExecutionTime = 12.38 s  ClockTime = 13 s

Time = 4.8

Courant Number mean: 0.00373917 max: 0.0564729
smoothSolver:  Solving for Ux, Initial residual = 0.000107054, Final residual = 3.27851e-06, No Iterations 1
smoothSolver:  Solving for Uy, Initial residual = 0.000578037, Final residual = 7.96714e-06, No Iterations 1
DICPCG:  Solving for p, Initial residual = 0.00194024, Final residual = 9.60754e-05, No Iterations 54
time step continuity errors : sum local = 9.63169e-11, global = -9.27719e-14, cumulative = -4.27697e-10
DICPCG:  Solving for p, Initial residual = 0.00111417, Final residual = 9.24012e-07, No Iterations 200
time step continuity errors : sum local = 9.25752e-13, global = 2.96836e-15, cumulative = -4.27694e-10
ExecutionTime = 12.49 s  ClockTime = 13 s

Time = 4.85

Courant Number mean: 0.00373901 max: 0.0564137
smoothSolver:  Solving for Ux, Initial residual = 0.00010605, Final residual = 3.2363e-06, No Iterations 1
smoothSolver:  Solving for Uy, Initial residual = 0.000573947, Final residual = 7.87822e-06, No Iterations 1
DICPCG:  Solving for p, Initial residual = 0.00192058, Final residual = 9.48342e-05, No Iterations 54
time step continuity errors : sum local = 9.49417e-11, global = -9.13082e-14, cumulative = -4.27786e-10
DICPCG:  Solving for p, Initial residual = 0.0011018, Final residual = 9.07651e-07, No Iterations 200
time step continuity errors : sum local = 9.08086e-13, global = 2.62291e-15, cumulative = -4.27783e-10
ExecutionTime = 12.6 s  ClockTime = 13 s

Time = 4.9

Courant Number mean: 0.00373885 max: 0.0563543
smoothSolver:  Solving for Ux, Initial residual = 0.000105067, Final residual = 3.19509e-06, No Iterations 1
smoothSolver:  Solving for Uy, Initial residual = 0.000569962, Final residual = 7.79127e-06, No Iterations 1
DICPCG:  Solving for p, Initial residual = 0.00188551, Final residual = 9.36492e-05, No Iterations 54
time step continuity errors : sum local = 9.36269e-11, global = -8.96969e-14, cumulative = -4.27873e-10
DICPCG:  Solving for p, Initial residual = 0.00109005, Final residual = 8.89784e-07, No Iterations 200
time step continuity errors : sum local = 8.89015e-13, global = 2.4513e-15, cumulative = -4.2787e-10
ExecutionTime = 12.71 s  ClockTime = 13 s

Time = 4.95

Courant Number mean: 0.0037387 max: 0.0562946
smoothSolver:  Solving for Ux, Initial residual = 0.000104107, Final residual = 3.15488e-06, No Iterations 1
smoothSolver:  Solving for Uy, Initial residual = 0.000566043, Final residual = 7.70628e-06, No Iterations 1
DICPCG:  Solving for p, Initial residual = 0.00186576, Final residual = 9.27938e-05, No Iterations 54
time step continuity errors : sum local = 9.26495e-11, global = -8.86922e-14, cumulative = -4.27959e-10
DICPCG:  Solving for p, Initial residual = 0.0010793, Final residual = 8.73878e-07, No Iterations 200
time step continuity errors : sum local = 8.71993e-13, global = 2.2074e-15, cumulative = -4.27957e-10
ExecutionTime = 12.82 s  ClockTime = 13 s

Time = 5

Courant Number mean: 0.00373855 max: 0.0562346
smoothSolver:  Solving for Ux, Initial residual = 0.000103167, Final residual = 3.11558e-06, No Iterations 1
smoothSolver:  Solving for Uy, Initial residual = 0.000562201, Final residual = 7.62329e-06, No Iterations 1
DICPCG:  Solving for p, Initial residual = 0.00186314, Final residual = 9.28166e-05, No Iterations 54
time step continuity errors : sum local = 9.25498e-11, global = -8.74679e-14, cumulative = -4.28044e-10
DICPCG:  Solving for p, Initial residual = 0.00107116, Final residual = 9.867e-07, No Iterations 199
time step continuity errors : sum local = 9.83238e-13, global = 1.6565e-15, cumulative = -4.28042e-10
ExecutionTime = 13.12 s  ClockTime = 13 s

Time = 5.05

Courant Number mean: 0.0037384 max: 0.0561745
smoothSolver:  Solving for Ux, Initial residual = 0.000102249, Final residual = 3.07728e-06, No Iterations 1
smoothSolver:  Solving for Uy, Initial residual = 0.000558384, Final residual = 7.54115e-06, No Iterations 1
DICPCG:  Solving for p, Initial residual = 0.00182341, Final residual = 8.99143e-05, No Iterations 54
time step continuity errors : sum local = 8.95372e-11, global = -8.59855e-14, cumulative = -4.28128e-10
DICPCG:  Solving for p, Initial residual = 0.00105741, Final residual = 9.66543e-07, No Iterations 199
time step continuity errors : sum local = 9.61915e-13, global = 1.5208e-15, cumulative = -4.28127e-10
ExecutionTime = 13.22 s  ClockTime = 13 s

Time = 5.1

Courant Number mean: 0.00373824 max: 0.0561141
smoothSolver:  Solving for Ux, Initial residual = 0.000101349, Final residual = 3.03984e-06, No Iterations 1
smoothSolver:  Solving for Uy, Initial residual = 0.000554662, Final residual = 7.46065e-06, No Iterations 1
DICPCG:  Solving for p, Initial residual = 0.00179753, Final residual = 8.90423e-05, No Iterations 54
time step continuity errors : sum local = 8.85561e-11, global = -8.48852e-14, cumulative = -4.28212e-10
DICPCG:  Solving for p, Initial residual = 0.00104702, Final residual = 9.56395e-07, No Iterations 199
time step continuity errors : sum local = 9.50611e-13, global = 1.34501e-15, cumulative = -4.2821e-10
ExecutionTime = 13.33 s  ClockTime = 14 s

Time = 5.15

Courant Number mean: 0.00373809 max: 0.0560536
smoothSolver:  Solving for Ux, Initial residual = 0.000100468, Final residual = 3.00325e-06, No Iterations 1
smoothSolver:  Solving for Uy, Initial residual = 0.000551017, Final residual = 7.38162e-06, No Iterations 1
DICPCG:  Solving for p, Initial residual = 0.00181315, Final residual = 8.92712e-05, No Iterations 54
time step continuity errors : sum local = 8.86734e-11, global = -8.37047e-14, cumulative = -4.28294e-10
DICPCG:  Solving for p, Initial residual = 0.00104159, Final residual = 9.34771e-07, No Iterations 199
time step continuity errors : sum local = 9.27981e-13, global = 1.21963e-15, cumulative = -4.28293e-10
ExecutionTime = 13.43 s  ClockTime = 14 s

Time = 5.2

Courant Number mean: 0.00373795 max: 0.0559929
smoothSolver:  Solving for Ux, Initial residual = 9.96027e-05, Final residual = 2.96747e-06, No Iterations 1
smoothSolver:  Solving for Uy, Initial residual = 0.000547441, Final residual = 7.30352e-06, No Iterations 1
DICPCG:  Solving for p, Initial residual = 0.0017806, Final residual = 8.75698e-05, No Iterations 54
time step continuity errors : sum local = 8.68734e-11, global = -8.26933e-14, cumulative = -4.28376e-10
DICPCG:  Solving for p, Initial residual = 0.00102995, Final residual = 9.07493e-07, No Iterations 199
time step continuity errors : sum local = 8.99726e-13, global = 1.05152e-15, cumulative = -4.28375e-10
ExecutionTime = 13.54 s  ClockTime = 14 s

Time = 5.25

Courant Number mean: 0.0037378 max: 0.055932
smoothSolver:  Solving for Ux, Initial residual = 9.87578e-05, Final residual = 2.9324e-06, No Iterations 1
smoothSolver:  Solving for Uy, Initial residual = 0.000543955, Final residual = 7.22969e-06, No Iterations 1
DICPCG:  Solving for p, Initial residual = 0.00175624, Final residual = 8.6538e-05, No Iterations 54
time step continuity errors : sum local = 8.57395e-11, global = -8.11318e-14, cumulative = -4.28456e-10
DICPCG:  Solving for p, Initial residual = 0.00101917, Final residual = 9.09783e-07, No Iterations 199
time step continuity errors : sum local = 9.00848e-13, global = 8.99461e-16, cumulative = -4.28455e-10
ExecutionTime = 13.64 s  ClockTime = 14 s

Time = 5.3

Courant Number mean: 0.00373765 max: 0.055871
smoothSolver:  Solving for Ux, Initial residual = 9.79284e-05, Final residual = 2.89812e-06, No Iterations 1
smoothSolver:  Solving for Uy, Initial residual = 0.000540542, Final residual = 7.15631e-06, No Iterations 1
DICPCG:  Solving for p, Initial residual = 0.00171805, Final residual = 8.46066e-05, No Iterations 54
time step continuity errors : sum local = 8.37216e-11, global = -8.06913e-14, cumulative = -4.28536e-10
DICPCG:  Solving for p, Initial residual = 0.00100781, Final residual = 9.83895e-07, No Iterations 198
time step continuity errors : sum local = 9.73047e-13, global = 1.719e-15, cumulative = -4.28534e-10
ExecutionTime = 13.75 s  ClockTime = 14 s

Time = 5.35

Courant Number mean: 0.00373751 max: 0.0558099
smoothSolver:  Solving for Ux, Initial residual = 9.71131e-05, Final residual = 2.86461e-06, No Iterations 1
smoothSolver:  Solving for Uy, Initial residual = 0.000537164, Final residual = 7.08284e-06, No Iterations 1
DICPCG:  Solving for p, Initial residual = 0.00170481, Final residual = 8.34925e-05, No Iterations 54
time step continuity errors : sum local = 8.25198e-11, global = -7.87848e-14, cumulative = -4.28613e-10
DICPCG:  Solving for p, Initial residual = 0.000998273, Final residual = 8.88942e-07, No Iterations 199
time step continuity errors : sum local = 8.78097e-13, global = 7.23608e-16, cumulative = -4.28612e-10
ExecutionTime = 13.85 s  ClockTime = 14 s

Time = 5.4

Courant Number mean: 0.00373736 max: 0.0557486
smoothSolver:  Solving for Ux, Initial residual = 9.63127e-05, Final residual = 2.83184e-06, No Iterations 1
smoothSolver:  Solving for Uy, Initial residual = 0.000533842, Final residual = 7.01069e-06, No Iterations 1
DICPCG:  Solving for p, Initial residual = 0.00172315, Final residual = 8.25605e-05, No Iterations 54
time step continuity errors : sum local = 8.15054e-11, global = -7.9704e-14, cumulative = -4.28692e-10
DICPCG:  Solving for p, Initial residual = 0.00099124, Final residual = 9.96587e-07, No Iterations 198
time step continuity errors : sum local = 9.83344e-13, global = 1.56897e-15, cumulative = -4.2869e-10
ExecutionTime = 13.95 s  ClockTime = 14 s

Time = 5.45

Courant Number mean: 0.00373722 max: 0.0556873
smoothSolver:  Solving for Ux, Initial residual = 9.55275e-05, Final residual = 2.79971e-06, No Iterations 1
[...]
time step continuity errors : sum local = 8.22486e-13, global = 5.50781e-14, cumulative = -3.50215e-10
ExecutionTime = 80.11 s  ClockTime = 81 s

Time = 38.7

Courant Number mean: 0.00369954 max: 0.0401693
smoothSolver:  Solving for Ux, Initial residual = 1.8974e-05, Final residual = 2.14553e-07, No Iterations 1
smoothSolver:  Solving for Uy, Initial residual = 0.000136095, Final residual = 5.66546e-07, No Iterations 1
DICPCG:  Solving for p, Initial residual = 0.000158868, Final residual = 7.83914e-06, No Iterations 55
time step continuity errors : sum local = 6.54023e-12, global = 4.32049e-14, cumulative = -3.50172e-10
DICPCG:  Solving for p, Initial residual = 0.000101275, Final residual = 9.87884e-07, No Iterations 97
time step continuity errors : sum local = 8.24174e-13, global = 5.25587e-14, cumulative = -3.50119e-10
ExecutionTime = 80.18 s  ClockTime = 81 s

Time = 38.75

Courant Number mean: 0.00369951 max: 0.0401693
smoothSolver:  Solving for Ux, Initial residual = 1.89543e-05, Final residual = 2.14153e-07, No Iterations 1
smoothSolver:  Solving for Uy, Initial residual = 0.000135962, Final residual = 5.65452e-07, No Iterations 1
DICPCG:  Solving for p, Initial residual = 0.000158641, Final residual = 7.84591e-06, No Iterations 55
time step continuity errors : sum local = 6.54552e-12, global = 4.12604e-14, cumulative = -3.50078e-10
DICPCG:  Solving for p, Initial residual = 0.000101128, Final residual = 9.81518e-07, No Iterations 97
time step continuity errors : sum local = 8.18819e-13, global = 5.09655e-14, cumulative = -3.50027e-10
ExecutionTime = 80.26 s  ClockTime = 81 s

Time = 38.8

Courant Number mean: 0.00369948 max: 0.0401692
smoothSolver:  Solving for Ux, Initial residual = 1.89347e-05, Final residual = 2.13753e-07, No Iterations 1
smoothSolver:  Solving for Uy, Initial residual = 0.000135829, Final residual = 5.6436e-07, No Iterations 1
DICPCG:  Solving for p, Initial residual = 0.000158424, Final residual = 7.82389e-06, No Iterations 55
time step continuity errors : sum local = 6.5268e-12, global = 4.06774e-14, cumulative = -3.49987e-10
DICPCG:  Solving for p, Initial residual = 0.000100916, Final residual = 9.79317e-07, No Iterations 97
time step continuity errors : sum local = 8.16939e-13, global = 5.04825e-14, cumulative = -3.49936e-10
ExecutionTime = 80.33 s  ClockTime = 82 s

Time = 38.85

Courant Number mean: 0.00369945 max: 0.0401692
smoothSolver:  Solving for Ux, Initial residual = 1.89151e-05, Final residual = 2.13355e-07, No Iterations 1
smoothSolver:  Solving for Uy, Initial residual = 0.000135697, Final residual = 5.63271e-07, No Iterations 1
DICPCG:  Solving for p, Initial residual = 0.000158227, Final residual = 7.82345e-06, No Iterations 55
time step continuity errors : sum local = 6.52608e-12, global = 4.1302e-14, cumulative = -3.49895e-10
DICPCG:  Solving for p, Initial residual = 0.000100765, Final residual = 9.77839e-07, No Iterations 97
time step continuity errors : sum local = 8.15662e-13, global = 5.09436e-14, cumulative = -3.49844e-10
ExecutionTime = 80.4 s  ClockTime = 82 s

Time = 38.9

Courant Number mean: 0.00369942 max: 0.0401692
smoothSolver:  Solving for Ux, Initial residual = 1.88956e-05, Final residual = 2.12958e-07, No Iterations 1
smoothSolver:  Solving for Uy, Initial residual = 0.000135565, Final residual = 5.62184e-07, No Iterations 1
DICPCG:  Solving for p, Initial residual = 0.00015808, Final residual = 7.80319e-06, No Iterations 55
time step continuity errors : sum local = 6.50883e-12, global = 4.27065e-14, cumulative = -3.49801e-10
DICPCG:  Solving for p, Initial residual = 0.00010055, Final residual = 9.77286e-07, No Iterations 97
time step continuity errors : sum local = 8.15157e-13, global = 5.20392e-14, cumulative = -3.49749e-10
ExecutionTime = 80.47 s  ClockTime = 82 s

Time = 38.95

Courant Number mean: 0.0036994 max: 0.0401691
smoothSolver:  Solving for Ux, Initial residual = 1.88761e-05, Final residual = 2.12562e-07, No Iterations 1
smoothSolver:  Solving for Uy, Initial residual = 0.000135433, Final residual = 5.61102e-07, No Iterations 1
DICPCG:  Solving for p, Initial residual = 0.000158016, Final residual = 7.8134e-06, No Iterations 55
time step continuity errors : sum local = 6.517e-12, global = 4.44073e-14, cumulative = -3.49705e-10
DICPCG:  Solving for p, Initial residual = 0.000100412, Final residual = 9.77633e-07, No Iterations 97
time step continuity errors : sum local = 8.15403e-13, global = 5.33416e-14, cumulative = -3.49651e-10
ExecutionTime = 80.54 s  ClockTime = 82 s

Time = 39

Courant Number mean: 0.00369937 max: 0.0401691
smoothSolver:  Solving for Ux, Initial residual = 1.88567e-05, Final residual = 2.12167e-07, No Iterations 1
smoothSolver:  Solving for Uy, Initial residual = 0.000135301, Final residual = 5.60022e-07, No Iterations 1
DICPCG:  Solving for p, Initial residual = 0.000158181, Final residual = 7.81408e-06, No Iterations 55
time step continuity errors : sum local = 6.51723e-12, global = 4.59029e-14, cumulative = -3.49605e-10
DICPCG:  Solving for p, Initial residual = 0.000100218, Final residual = 9.76715e-07, No Iterations 97
time step continuity errors : sum local = 8.14596e-13, global = 5.44315e-14, cumulative = -3.49551e-10
ExecutionTime = 80.8 s  ClockTime = 82 s

Time = 39.05

Courant Number mean: 0.00369934 max: 0.040169
smoothSolver:  Solving for Ux, Initial residual = 1.88373e-05, Final residual = 2.11772e-07, No Iterations 1
smoothSolver:  Solving for Uy, Initial residual = 0.000135169, Final residual = 5.58946e-07, No Iterations 1
DICPCG:  Solving for p, Initial residual = 0.000159135, Final residual = 7.8811e-06, No Iterations 55
time step continuity errors : sum local = 6.5728e-12, global = 4.67971e-14, cumulative = -3.49504e-10
DICPCG:  Solving for p, Initial residual = 0.000100205, Final residual = 9.7625e-07, No Iterations 97
time step continuity errors : sum local = 8.14168e-13, global = 5.48679e-14, cumulative = -3.49449e-10
ExecutionTime = 80.87 s  ClockTime = 82 s

Time = 39.1

Courant Number mean: 0.00369931 max: 0.040169
smoothSolver:  Solving for Ux, Initial residual = 1.88178e-05, Final residual = 2.11377e-07, No Iterations 1
smoothSolver:  Solving for Uy, Initial residual = 0.000135039, Final residual = 5.57873e-07, No Iterations 1
DICPCG:  Solving for p, Initial residual = 0.000161188, Final residual = 7.96895e-06, No Iterations 55
time step continuity errors : sum local = 6.64576e-12, global = 4.65993e-14, cumulative = -3.49403e-10
DICPCG:  Solving for p, Initial residual = 0.000100298, Final residual = 9.7289e-07, No Iterations 97
time step continuity errors : sum local = 8.11329e-13, global = 5.42183e-14, cumulative = -3.49348e-10
ExecutionTime = 80.94 s  ClockTime = 82 s

Time = 39.15

Courant Number mean: 0.00369928 max: 0.0401689
smoothSolver:  Solving for Ux, Initial residual = 1.87983e-05, Final residual = 2.10978e-07, No Iterations 1
smoothSolver:  Solving for Uy, Initial residual = 0.000134911, Final residual = 5.56807e-07, No Iterations 1
DICPCG:  Solving for p, Initial residual = 0.000164381, Final residual = 8.05556e-06, No Iterations 55
time step continuity errors : sum local = 6.7176e-12, global = 4.49213e-14, cumulative = -3.49304e-10
DICPCG:  Solving for p, Initial residual = 0.0001008, Final residual = 9.75969e-07, No Iterations 97
time step continuity errors : sum local = 8.13842e-13, global = 5.59762e-14, cumulative = -3.49248e-10
ExecutionTime = 81.01 s  ClockTime = 82 s

Time = 39.2

Courant Number mean: 0.00369925 max: 0.0401689
smoothSolver:  Solving for Ux, Initial residual = 1.87795e-05, Final residual = 2.10607e-07, No Iterations 1
smoothSolver:  Solving for Uy, Initial residual = 0.000134775, Final residual = 5.5574e-07, No Iterations 1
DICPCG:  Solving for p, Initial residual = 0.00015852, Final residual = 7.85802e-06, No Iterations 55
time step continuity errors : sum local = 6.55245e-12, global = 4.89088e-14, cumulative = -3.49199e-10
DICPCG:  Solving for p, Initial residual = 9.9713e-05, Final residual = 9.71214e-07, No Iterations 97
time step continuity errors : sum local = 8.09829e-13, global = 5.74226e-14, cumulative = -3.49141e-10
ExecutionTime = 81.08 s  ClockTime = 82 s

Time = 39.25

Courant Number mean: 0.00369922 max: 0.0401688
smoothSolver:  Solving for Ux, Initial residual = 1.87605e-05, Final residual = 2.10223e-07, No Iterations 1
smoothSolver:  Solving for Uy, Initial residual = 0.000134644, Final residual = 5.54664e-07, No Iterations 1
DICPCG:  Solving for p, Initial residual = 0.000155868, Final residual = 7.70562e-06, No Iterations 55
time step continuity errors : sum local = 6.42502e-12, global = 5.01745e-14, cumulative = -3.49091e-10
DICPCG:  Solving for p, Initial residual = 9.93412e-05, Final residual = 9.70127e-07, No Iterations 97
time step continuity errors : sum local = 8.0888e-13, global = 5.77995e-14, cumulative = -3.49033e-10
ExecutionTime = 81.16 s  ClockTime = 82 s

Time = 39.3

Courant Number mean: 0.0036992 max: 0.0401688
smoothSolver:  Solving for Ux, Initial residual = 1.87413e-05, Final residual = 2.09835e-07, No Iterations 1
smoothSolver:  Solving for Uy, Initial residual = 0.000134515, Final residual = 5.53598e-07, No Iterations 1
DICPCG:  Solving for p, Initial residual = 0.000155515, Final residual = 7.68667e-06, No Iterations 55
time step continuity errors : sum local = 6.40888e-12, global = 4.94988e-14, cumulative = -3.48984e-10
DICPCG:  Solving for p, Initial residual = 9.91145e-05, Final residual = 9.68003e-07, No Iterations 97
time step continuity errors : sum local = 8.07066e-13, global = 5.72276e-14, cumulative = -3.48927e-10
ExecutionTime = 81.23 s  ClockTime = 82 s

Time = 39.35

Courant Number mean: 0.00369917 max: 0.0401688
smoothSolver:  Solving for Ux, Initial residual = 1.87221e-05, Final residual = 2.09447e-07, No Iterations 1
smoothSolver:  Solving for Uy, Initial residual = 0.000134386, Final residual = 5.52537e-07, No Iterations 1
DICPCG:  Solving for p, Initial residual = 0.00015527, Final residual = 7.68757e-06, No Iterations 55
time step continuity errors : sum local = 6.40929e-12, global = 4.80266e-14, cumulative = -3.48879e-10
DICPCG:  Solving for p, Initial residual = 9.89872e-05, Final residual = 9.66369e-07, No Iterations 97
time step continuity errors : sum local = 8.05662e-13, global = 5.604e-14, cumulative = -3.48822e-10
ExecutionTime = 81.29 s  ClockTime = 82 s

Time = 39.4

Courant Number mean: 0.00369914 max: 0.0401687
smoothSolver:  Solving for Ux, Initial residual = 1.87031e-05, Final residual = 2.09062e-07, No Iterations 1
smoothSolver:  Solving for Uy, Initial residual = 0.000134258, Final residual = 5.51481e-07, No Iterations 1
DICPCG:  Solving for p, Initial residual = 0.00015501, Final residual = 7.65514e-06, No Iterations 55
time step continuity errors : sum local = 6.38192e-12, global = 4.62271e-14, cumulative = -3.48776e-10
DICPCG:  Solving for p, Initial residual = 9.87588e-05, Final residual = 9.61548e-07, No Iterations 97
time step continuity errors : sum local = 8.016e-13, global = 5.45297e-14, cumulative = -3.48722e-10
ExecutionTime = 81.36 s  ClockTime = 83 s

Time = 39.45

Courant Number mean: 0.00369911 max: 0.0401687
smoothSolver:  Solving for Ux, Initial residual = 1.86841e-05, Final residual = 2.08677e-07, No Iterations 1
smoothSolver:  Solving for Uy, Initial residual = 0.000134129, Final residual = 5.50428e-07, No Iterations 1
DICPCG:  Solving for p, Initial residual = 0.000154752, Final residual = 7.6517e-06, No Iterations 55
time step continuity errors : sum local = 6.37871e-12, global = 4.45464e-14, cumulative = -3.48677e-10
DICPCG:  Solving for p, Initial residual = 9.86109e-05, Final residual = 9.5964e-07, No Iterations 97
time step continuity errors : sum local = 7.99968e-13, global = 5.32222e-14, cumulative = -3.48624e-10
ExecutionTime = 81.43 s  ClockTime = 83 s

Time = 39.5

Courant Number mean: 0.00369908 max: 0.0401686
smoothSolver:  Solving for Ux, Initial residual = 1.86651e-05, Final residual = 2.08294e-07, No Iterations 1
smoothSolver:  Solving for Uy, Initial residual = 0.000134001, Final residual = 5.49378e-07, No Iterations 1
DICPCG:  Solving for p, Initial residual = 0.0001545, Final residual = 7.63253e-06, No Iterations 55
time step continuity errors : sum local = 6.3624e-12, global = 4.33309e-14, cumulative = -3.48581e-10
DICPCG:  Solving for p, Initial residual = 9.84105e-05, Final residual = 9.55325e-07, No Iterations 97
time step continuity errors : sum local = 7.96329e-13, global = 5.21998e-14, cumulative = -3.48528e-10
ExecutionTime = 81.7 s  ClockTime = 83 s

Time = 39.55

Courant Number mean: 0.00369905 max: 0.0401686
smoothSolver:  Solving for Ux, Initial residual = 1.86462e-05, Final residual = 2.07912e-07, No Iterations 1
smoothSolver:  Solving for Uy, Initial residual = 0.000133873, Final residual = 5.48331e-07, No Iterations 1
DICPCG:  Solving for p, Initial residual = 0.000154247, Final residual = 7.62664e-06, No Iterations 55
time step continuity errors : sum local = 6.35716e-12, global = 4.27049e-14, cumulative = -3.48486e-10
DICPCG:  Solving for p, Initial residual = 9.83005e-05, Final residual = 9.52724e-07, No Iterations 97
time step continuity errors : sum local = 7.9412e-13, global = 5.16533e-14, cumulative = -3.48434e-10
ExecutionTime = 81.78 s  ClockTime = 83 s

Time = 39.6

Courant Number mean: 0.00369902 max: 0.0401685
smoothSolver:  Solving for Ux, Initial residual = 1.86273e-05, Final residual = 2.07531e-07, No Iterations 1
smoothSolver:  Solving for Uy, Initial residual = 0.000133746, Final residual = 5.47288e-07, No Iterations 1
DICPCG:  Solving for p, Initial residual = 0.000154005, Final residual = 7.60596e-06, No Iterations 55
time step continuity errors : sum local = 6.33959e-12, global = 4.26616e-14, cumulative = -3.48391e-10
DICPCG:  Solving for p, Initial residual = 9.80597e-05, Final residual = 9.9965e-07, No Iterations 96
time step continuity errors : sum local = 8.3319e-13, global = 5.35244e-14, cumulative = -3.48338e-10
ExecutionTime = 81.85 s  ClockTime = 83 s

Time = 39.65

Courant Number mean: 0.003699 max: 0.0401685
smoothSolver:  Solving for Ux, Initial residual = 1.86085e-05, Final residual = 2.07151e-07, No Iterations 1
smoothSolver:  Solving for Uy, Initial residual = 0.000133618, Final residual = 5.46251e-07, No Iterations 1
DICPCG:  Solving for p, Initial residual = 0.000153861, Final residual = 7.60865e-06, No Iterations 55
time step continuity errors : sum local = 6.3415e-12, global = 4.33399e-14, cumulative = -3.48295e-10
DICPCG:  Solving for p, Initial residual = 9.78992e-05, Final residual = 9.99213e-07, No Iterations 96
time step continuity errors : sum local = 8.32783e-13, global = 5.3901e-14, cumulative = -3.48241e-10
ExecutionTime = 81.92 s  ClockTime = 83 s

Time = 39.7

Courant Number mean: 0.00369897 max: 0.0401685
smoothSolver:  Solving for Ux, Initial residual = 1.85897e-05, Final residual = 2.06772e-07, No Iterations 1
smoothSolver:  Solving for Uy, Initial residual = 0.000133491, Final residual = 5.45213e-07, No Iterations 1
DICPCG:  Solving for p, Initial residual = 0.000153568, Final residual = 7.60052e-06, No Iterations 55
time step continuity errors : sum local = 6.33441e-12, global = 4.41062e-14, cumulative = -3.48197e-10
DICPCG:  Solving for p, Initial residual = 9.77272e-05, Final residual = 9.98518e-07, No Iterations 96
time step continuity errors : sum local = 8.32161e-13, global = 5.46063e-14, cumulative = -3.48142e-10
ExecutionTime = 81.99 s  ClockTime = 83 s

Time = 39.75

Courant Number mean: 0.00369894 max: 0.0401684
smoothSolver:  Solving for Ux, Initial residual = 1.85709e-05, Final residual = 2.06395e-07, No Iterations 1
smoothSolver:  Solving for Uy, Initial residual = 0.000133364, Final residual = 5.4418e-07, No Iterations 1
DICPCG:  Solving for p, Initial residual = 0.000153336, Final residual = 7.57778e-06, No Iterations 55
time step continuity errors : sum local = 6.31512e-12, global = 4.49638e-14, cumulative = -3.48097e-10
DICPCG:  Solving for p, Initial residual = 9.75476e-05, Final residual = 9.957e-07, No Iterations 96
time step continuity errors : sum local = 8.29769e-13, global = 5.52495e-14, cumulative = -3.48042e-10
ExecutionTime = 82.07 s  ClockTime = 83 s

Time = 39.8

Courant Number mean: 0.00369891 max: 0.0401684
smoothSolver:  Solving for Ux, Initial residual = 1.85521e-05, Final residual = 2.06018e-07, No Iterations 1
smoothSolver:  Solving for Uy, Initial residual = 0.000133238, Final residual = 5.4315e-07, No Iterations 1
DICPCG:  Solving for p, Initial residual = 0.000153133, Final residual = 7.57353e-06, No Iterations 55
time step continuity errors : sum local = 6.31125e-12, global = 4.56293e-14, cumulative = -3.47996e-10
DICPCG:  Solving for p, Initial residual = 9.73833e-05, Final residual = 9.89116e-07, No Iterations 96
time step continuity errors : sum local = 8.2424e-13, global = 5.57152e-14, cumulative = -3.4794e-10
ExecutionTime = 82.14 s  ClockTime = 83 s

Time = 39.85

Courant Number mean: 0.00369888 max: 0.0401683
smoothSolver:  Solving for Ux, Initial residual = 1.85334e-05, Final residual = 2.05643e-07, No Iterations 1
smoothSolver:  Solving for Uy, Initial residual = 0.000133111, Final residual = 5.42124e-07, No Iterations 1
DICPCG:  Solving for p, Initial residual = 0.000152912, Final residual = 7.54812e-06, No Iterations 55
time step continuity errors : sum local = 6.28976e-12, global = 4.59842e-14, cumulative = -3.47894e-10
DICPCG:  Solving for p, Initial residual = 9.71978e-05, Final residual = 9.85226e-07, No Iterations 96
time step continuity errors : sum local = 8.20957e-13, global = 5.5907e-14, cumulative = -3.47838e-10
ExecutionTime = 82.21 s  ClockTime = 83 s

Time = 39.9

Courant Number mean: 0.00369886 max: 0.0401683
smoothSolver:  Solving for Ux, Initial residual = 1.85148e-05, Final residual = 2.05269e-07, No Iterations 1
smoothSolver:  Solving for Uy, Initial residual = 0.000132985, Final residual = 5.41101e-07, No Iterations 1
DICPCG:  Solving for p, Initial residual = 0.000152723, Final residual = 7.54157e-06, No Iterations 55
time step continuity errors : sum local = 6.28398e-12, global = 4.59936e-14, cumulative = -3.47792e-10
DICPCG:  Solving for p, Initial residual = 9.70294e-05, Final residual = 9.76044e-07, No Iterations 96
time step continuity errors : sum local = 8.13264e-13, global = 5.57758e-14, cumulative = -3.47737e-10
ExecutionTime = 82.28 s  ClockTime = 83 s

Time = 39.95

Courant Number mean: 0.00369883 max: 0.0401682
smoothSolver:  Solving for Ux, Initial residual = 1.84962e-05, Final residual = 2.04896e-07, No Iterations 1
smoothSolver:  Solving for Uy, Initial residual = 0.000132859, Final residual = 5.40081e-07, No Iterations 1
DICPCG:  Solving for p, Initial residual = 0.000152549, Final residual = 7.52876e-06, No Iterations 55
time step continuity errors : sum local = 6.27299e-12, global = 4.56912e-14, cumulative = -3.47691e-10
DICPCG:  Solving for p, Initial residual = 9.68619e-05, Final residual = 9.81943e-07, No Iterations 96
time step continuity errors : sum local = 8.18138e-13, global = 5.54511e-14, cumulative = -3.47636e-10
ExecutionTime = 82.35 s  ClockTime = 84 s

Time = 40

Courant Number mean: 0.0036988 max: 0.0401682
smoothSolver:  Solving for Ux, Initial residual = 1.84777e-05, Final residual = 2.04524e-07, No Iterations 1
smoothSolver:  Solving for Uy, Initial residual = 0.000132734, Final residual = 5.39064e-07, No Iterations 1
DICPCG:  Solving for p, Initial residual = 0.000152417, Final residual = 7.54223e-06, No Iterations 55
time step continuity errors : sum local = 6.28389e-12, global = 4.51794e-14, cumulative = -3.4759e-10
DICPCG:  Solving for p, Initial residual = 9.67225e-05, Final residual = 9.86462e-07, No Iterations 96
time step continuity errors : sum local = 8.21861e-13, global = 5.52168e-14, cumulative = -3.47535e-10
ExecutionTime = 82.61 s  ClockTime = 84 s

End

