/*---------------------------------------------------------------------------*\
  =========                 |
  \\      /  F ield         | OpenFOAM: The Open Source CFD Toolbox
   \\    /   O peration     | Website:  https://openfoam.org
    \\  /    A nd           | Version:  7
     \\/     M anipulation  |
\*---------------------------------------------------------------------------*/
Build  : 7-49b2b3b8b082
Exec   : icoFoam
Date   : May 14 2021
Time   : 21:12:56
Host   : "c402-021.stampede2.tacc.utexas.edu"
PID    : 127063
I/O    : uncollated
Case   : /work2/06781/jpborsos/stampede2/coe347/Final_Project/COE347/finalProject/results/highRe/spline1
nProcs : 1
sigFpe : Enabling floating point exception trapping (FOAM_SIGFPE).
fileModificationChecking : Monitoring run-time modified files using timeStampMaster (fileModificationSkew 10)
allowSystemOperations : Allowing user-supplied system call operations

// * * * * * * * * * * * * * * * * * * * * * * * * * * * * * * * * * * * * * //
Create time

Create mesh for time = 0

Reading transportProperties

Reading field p

Reading field U

Reading/calculating face flux field phi


Starting time loop

Time = 0.05

Courant Number mean: 0.00703999 max: 0.135368
smoothSolver:  Solving for Ux, Initial residual = 1, Final residual = 6.03201e-06, No Iterations 18
smoothSolver:  Solving for Uy, Initial residual = 0, Final residual = 0, No Iterations 0
DICPCG:  Solving for p, Initial residual = 1, Final residual = 0.0470187, No Iterations 357
time step continuity errors : sum local = 1.15982e-07, global = -3.08855e-10, cumulative = -3.08855e-10
DICPCG:  Solving for p, Initial residual = 0.252676, Final residual = 9.32768e-07, No Iterations 479
time step continuity errors : sum local = 1.78882e-11, global = -1.07369e-13, cumulative = -3.08963e-10
ExecutionTime = 2.24 s  ClockTime = 3 s

Time = 0.1

Courant Number mean: 0.0070594 max: 0.144421
smoothSolver:  Solving for Ux, Initial residual = 0.162343, Final residual = 5.88808e-06, No Iterations 12
smoothSolver:  Solving for Uy, Initial residual = 0.275946, Final residual = 6.79344e-06, No Iterations 13
DICPCG:  Solving for p, Initial residual = 0.207678, Final residual = 0.00979328, No Iterations 201
time step continuity errors : sum local = 2.24217e-07, global = 3.66956e-08, cumulative = 3.63866e-08
DICPCG:  Solving for p, Initial residual = 0.237687, Final residual = 9.85585e-07, No Iterations 477
time step continuity errors : sum local = 2.06388e-11, global = 1.60802e-13, cumulative = 3.63868e-08
ExecutionTime = 3.59 s  ClockTime = 4 s

Time = 0.15

Courant Number mean: 0.0070722 max: 0.167732
smoothSolver:  Solving for Ux, Initial residual = 0.0459788, Final residual = 7.14815e-06, No Iterations 11
smoothSolver:  Solving for Uy, Initial residual = 0.0459698, Final residual = 6.80251e-06, No Iterations 10
DICPCG:  Solving for p, Initial residual = 0.481942, Final residual = 0.0238087, No Iterations 111
time step continuity errors : sum local = 1.70492e-07, global = -1.5047e-09, cumulative = 3.48821e-08
DICPCG:  Solving for p, Initial residual = 0.32229, Final residual = 9.5563e-07, No Iterations 460
time step continuity errors : sum local = 5.25871e-12, global = 1.53563e-14, cumulative = 3.48821e-08
ExecutionTime = 4.71 s  ClockTime = 5 s

Time = 0.2

Courant Number mean: 0.00706507 max: 0.163022
smoothSolver:  Solving for Ux, Initial residual = 0.0107165, Final residual = 7.69693e-06, No Iterations 9
smoothSolver:  Solving for Uy, Initial residual = 0.0168745, Final residual = 5.50909e-06, No Iterations 8
DICPCG:  Solving for p, Initial residual = 0.259562, Final residual = 0.0128843, No Iterations 121
time step continuity errors : sum local = 3.94757e-08, global = 5.86008e-10, cumulative = 3.54681e-08
DICPCG:  Solving for p, Initial residual = 0.161905, Final residual = 9.82322e-07, No Iterations 455
time step continuity errors : sum local = 2.49832e-12, global = 1.79762e-14, cumulative = 3.54681e-08
ExecutionTime = 5.83 s  ClockTime = 6 s

Time = 0.25

Courant Number mean: 0.00706176 max: 0.163584
smoothSolver:  Solving for Ux, Initial residual = 0.00451838, Final residual = 9.6451e-06, No Iterations 8
smoothSolver:  Solving for Uy, Initial residual = 0.00794309, Final residual = 6.71035e-06, No Iterations 8
DICPCG:  Solving for p, Initial residual = 0.132958, Final residual = 0.00660037, No Iterations 85
time step continuity errors : sum local = 1.16739e-08, global = -7.09353e-11, cumulative = 3.53972e-08
DICPCG:  Solving for p, Initial residual = 0.061258, Final residual = 9.81677e-07, No Iterations 418
time step continuity errors : sum local = 1.79079e-12, global = -7.77757e-15, cumulative = 3.53972e-08
ExecutionTime = 6.81 s  ClockTime = 7 s

Time = 0.3

Courant Number mean: 0.00705861 max: 0.162912
smoothSolver:  Solving for Ux, Initial residual = 0.00365499, Final residual = 7.09213e-06, No Iterations 8
smoothSolver:  Solving for Uy, Initial residual = 0.007356, Final residual = 9.31762e-06, No Iterations 7
DICPCG:  Solving for p, Initial residual = 0.0594362, Final residual = 0.0029224, No Iterations 98
time step continuity errors : sum local = 5.3277e-09, global = 7.46847e-12, cumulative = 3.54047e-08
DICPCG:  Solving for p, Initial residual = 0.0214773, Final residual = 9.82881e-07, No Iterations 417
time step continuity errors : sum local = 1.77089e-12, global = -2.50125e-14, cumulative = 3.54046e-08
ExecutionTime = 7.81 s  ClockTime = 8 s

Time = 0.35

Courant Number mean: 0.00705589 max: 0.162249
smoothSolver:  Solving for Ux, Initial residual = 0.00286467, Final residual = 5.47784e-06, No Iterations 8
smoothSolver:  Solving for Uy, Initial residual = 0.00637048, Final residual = 8.30423e-06, No Iterations 7
DICPCG:  Solving for p, Initial residual = 0.0399943, Final residual = 0.00199516, No Iterations 88
time step continuity errors : sum local = 3.46028e-09, global = -7.14465e-13, cumulative = 3.54039e-08
DICPCG:  Solving for p, Initial residual = 0.00994434, Final residual = 9.94341e-07, No Iterations 410
time step continuity errors : sum local = 1.72619e-12, global = -1.61998e-14, cumulative = 3.54039e-08
ExecutionTime = 8.78 s  ClockTime = 9 s

Time = 0.4

Courant Number mean: 0.00705343 max: 0.161235
smoothSolver:  Solving for Ux, Initial residual = 0.00239439, Final residual = 8.14194e-06, No Iterations 7
smoothSolver:  Solving for Uy, Initial residual = 0.00575859, Final residual = 7.18963e-06, No Iterations 7
DICPCG:  Solving for p, Initial residual = 0.0315331, Final residual = 0.00155134, No Iterations 96
time step continuity errors : sum local = 2.64137e-09, global = 7.16089e-13, cumulative = 3.54046e-08
DICPCG:  Solving for p, Initial residual = 0.00672936, Final residual = 9.20417e-07, No Iterations 410
time step continuity errors : sum local = 1.5564e-12, global = -1.31679e-14, cumulative = 3.54046e-08
ExecutionTime = 9.76 s  ClockTime = 10 s

Time = 0.45

Courant Number mean: 0.00705119 max: 0.160025
smoothSolver:  Solving for Ux, Initial residual = 0.00205767, Final residual = 6.75275e-06, No Iterations 7
smoothSolver:  Solving for Uy, Initial residual = 0.0052655, Final residual = 6.41002e-06, No Iterations 7
DICPCG:  Solving for p, Initial residual = 0.026726, Final residual = 0.00133086, No Iterations 85
time step continuity errors : sum local = 2.20592e-09, global = 1.31338e-13, cumulative = 3.54047e-08
DICPCG:  Solving for p, Initial residual = 0.00526393, Final residual = 9.75045e-07, No Iterations 407
time step continuity errors : sum local = 1.61235e-12, global = -4.75801e-15, cumulative = 3.54047e-08
ExecutionTime = 10.71 s  ClockTime = 11 s

Time = 0.5

Courant Number mean: 0.00704912 max: 0.158619
smoothSolver:  Solving for Ux, Initial residual = 0.00181089, Final residual = 5.72289e-06, No Iterations 7
smoothSolver:  Solving for Uy, Initial residual = 0.00487883, Final residual = 5.74388e-06, No Iterations 7
DICPCG:  Solving for p, Initial residual = 0.023364, Final residual = 0.00115725, No Iterations 85
time step continuity errors : sum local = 1.88413e-09, global = 4.01698e-13, cumulative = 3.54051e-08
DICPCG:  Solving for p, Initial residual = 0.00464606, Final residual = 9.5257e-07, No Iterations 365
time step continuity errors : sum local = 1.54301e-12, global = 1.77984e-15, cumulative = 3.54051e-08
ExecutionTime = 11.59 s  ClockTime = 12 s

Time = 0.55

Courant Number mean: 0.00704718 max: 0.157081
smoothSolver:  Solving for Ux, Initial residual = 0.00161856, Final residual = 9.18075e-06, No Iterations 6
smoothSolver:  Solving for Uy, Initial residual = 0.0045592, Final residual = 9.68673e-06, No Iterations 6
DICPCG:  Solving for p, Initial residual = 0.0207276, Final residual = 0.00103217, No Iterations 88
time step continuity errors : sum local = 1.64669e-09, global = 2.66432e-13, cumulative = 3.54054e-08
DICPCG:  Solving for p, Initial residual = 0.00434243, Final residual = 9.20858e-07, No Iterations 405
time step continuity errors : sum local = 1.46428e-12, global = -1.32952e-15, cumulative = 3.54054e-08
ExecutionTime = 12.54 s  ClockTime = 13 s

Time = 0.6

Courant Number mean: 0.00704537 max: 0.155453
smoothSolver:  Solving for Ux, Initial residual = 0.00146232, Final residual = 8.0505e-06, No Iterations 6
smoothSolver:  Solving for Uy, Initial residual = 0.00427645, Final residual = 8.85743e-06, No Iterations 6
DICPCG:  Solving for p, Initial residual = 0.0187409, Final residual = 0.000916794, No Iterations 84
time step continuity errors : sum local = 1.43795e-09, global = 2.67214e-13, cumulative = 3.54057e-08
DICPCG:  Solving for p, Initial residual = 0.00382386, Final residual = 9.96537e-07, No Iterations 403
time step continuity errors : sum local = 1.55594e-12, global = 3.99665e-15, cumulative = 3.54057e-08
ExecutionTime = 13.47 s  ClockTime = 14 s

Time = 0.65

Courant Number mean: 0.00704366 max: 0.153759
smoothSolver:  Solving for Ux, Initial residual = 0.00133806, Final residual = 7.13057e-06, No Iterations 6
smoothSolver:  Solving for Uy, Initial residual = 0.00404969, Final residual = 8.14418e-06, No Iterations 6
DICPCG:  Solving for p, Initial residual = 0.0170414, Final residual = 0.00084779, No Iterations 84
time step continuity errors : sum local = 1.30759e-09, global = 2.3293e-13, cumulative = 3.54059e-08
DICPCG:  Solving for p, Initial residual = 0.00356408, Final residual = 9.7701e-07, No Iterations 402
time step continuity errors : sum local = 1.50117e-12, global = 3.06295e-15, cumulative = 3.54059e-08
ExecutionTime = 14.4 s  ClockTime = 15 s

Time = 0.7

Courant Number mean: 0.00704203 max: 0.152026
smoothSolver:  Solving for Ux, Initial residual = 0.00123408, Final residual = 6.37649e-06, No Iterations 6
smoothSolver:  Solving for Uy, Initial residual = 0.00385118, Final residual = 7.52873e-06, No Iterations 6
DICPCG:  Solving for p, Initial residual = 0.0154616, Final residual = 0.000750023, No Iterations 84
time step continuity errors : sum local = 1.1397e-09, global = 2.29991e-13, cumulative = 3.54061e-08
DICPCG:  Solving for p, Initial residual = 0.00323062, Final residual = 9.96659e-07, No Iterations 400
time step continuity errors : sum local = 1.50798e-12, global = 5.04008e-15, cumulative = 3.54061e-08
ExecutionTime = 15.34 s  ClockTime = 16 s

Time = 0.75

Courant Number mean: 0.00704048 max: 0.150276
smoothSolver:  Solving for Ux, Initial residual = 0.00114584, Final residual = 5.74922e-06, No Iterations 6
smoothSolver:  Solving for Uy, Initial residual = 0.00367589, Final residual = 6.99452e-06, No Iterations 6
DICPCG:  Solving for p, Initial residual = 0.0142034, Final residual = 0.00068422, No Iterations 84
time step continuity errors : sum local = 1.02434e-09, global = 1.94341e-13, cumulative = 3.54063e-08
DICPCG:  Solving for p, Initial residual = 0.00298568, Final residual = 9.70036e-07, No Iterations 399
time step continuity errors : sum local = 1.44668e-12, global = 3.29139e-15, cumulative = 3.54063e-08
ExecutionTime = 16.26 s  ClockTime = 17 s

Time = 0.8

Courant Number mean: 0.00703899 max: 0.148525
smoothSolver:  Solving for Ux, Initial residual = 0.00107004, Final residual = 9.90101e-06, No Iterations 5
smoothSolver:  Solving for Uy, Initial residual = 0.00351996, Final residual = 6.52387e-06, No Iterations 6
DICPCG:  Solving for p, Initial residual = 0.013301, Final residual = 0.000658663, No Iterations 92
time step continuity errors : sum local = 9.72558e-10, global = 2.14884e-13, cumulative = 3.54066e-08
DICPCG:  Solving for p, Initial residual = 0.00355192, Final residual = 9.83896e-07, No Iterations 399
time step continuity errors : sum local = 1.44674e-12, global = 3.18041e-15, cumulative = 3.54066e-08
ExecutionTime = 17.2 s  ClockTime = 18 s

Time = 0.85

Courant Number mean: 0.00703757 max: 0.146803
smoothSolver:  Solving for Ux, Initial residual = 0.00100074, Final residual = 9.09224e-06, No Iterations 5
smoothSolver:  Solving for Uy, Initial residual = 0.00336222, Final residual = 6.11635e-06, No Iterations 6
DICPCG:  Solving for p, Initial residual = 0.012289, Final residual = 0.00059434, No Iterations 84
time step continuity errors : sum local = 8.64798e-10, global = 1.31876e-13, cumulative = 3.54067e-08
DICPCG:  Solving for p, Initial residual = 0.00316641, Final residual = 9.3889e-07, No Iterations 397
time step continuity errors : sum local = 1.36111e-12, global = 1.85661e-16, cumulative = 3.54067e-08
ExecutionTime = 18.12 s  ClockTime = 19 s

Time = 0.9

Courant Number mean: 0.0070362 max: 0.145642
smoothSolver:  Solving for Ux, Initial residual = 0.000944047, Final residual = 8.37622e-06, No Iterations 5
smoothSolver:  Solving for Uy, Initial residual = 0.00323964, Final residual = 5.74841e-06, No Iterations 6
DICPCG:  Solving for p, Initial residual = 0.0114965, Final residual = 0.000547089, No Iterations 85
time step continuity errors : sum local = 7.86212e-10, global = 1.80539e-13, cumulative = 3.54069e-08
DICPCG:  Solving for p, Initial residual = 0.00304511, Final residual = 9.87248e-07, No Iterations 396
time step continuity errors : sum local = 1.41309e-12, global = -2.0082e-15, cumulative = 3.54069e-08
ExecutionTime = 19.03 s  ClockTime = 19 s

Time = 0.95

Courant Number mean: 0.00703488 max: 0.144644
smoothSolver:  Solving for Ux, Initial residual = 0.00089323, Final residual = 7.7546e-06, No Iterations 5
smoothSolver:  Solving for Uy, Initial residual = 0.00312547, Final residual = 5.41703e-06, No Iterations 6
DICPCG:  Solving for p, Initial residual = 0.0108481, Final residual = 0.000514004, No Iterations 85
time step continuity errors : sum local = 7.29313e-10, global = 1.51728e-13, cumulative = 3.5407e-08
DICPCG:  Solving for p, Initial residual = 0.00290072, Final residual = 9.54474e-07, No Iterations 395
time step continuity errors : sum local = 1.34915e-12, global = -4.17654e-15, cumulative = 3.5407e-08
ExecutionTime = 19.94 s  ClockTime = 20 s

Time = 1

Courant Number mean: 0.00703361 max: 0.143627
smoothSolver:  Solving for Ux, Initial residual = 0.000847881, Final residual = 7.20934e-06, No Iterations 5
smoothSolver:  Solving for Uy, Initial residual = 0.00302114, Final residual = 9.80646e-06, No Iterations 5
DICPCG:  Solving for p, Initial residual = 0.0102064, Final residual = 0.000493323, No Iterations 85
time step continuity errors : sum local = 6.91588e-10, global = 1.40248e-13, cumulative = 3.54072e-08
DICPCG:  Solving for p, Initial residual = 0.00273385, Final residual = 9.55262e-07, No Iterations 396
time step continuity errors : sum local = 1.33399e-12, global = -5.28359e-16, cumulative = 3.54072e-08
ExecutionTime = 21.49 s  ClockTime = 22 s

Time = 1.05

Courant Number mean: 0.00703237 max: 0.142598
smoothSolver:  Solving for Ux, Initial residual = 0.00080678, Final residual = 6.72955e-06, No Iterations 5
smoothSolver:  Solving for Uy, Initial residual = 0.00292368, Final residual = 9.31146e-06, No Iterations 5
DICPCG:  Solving for p, Initial residual = 0.00968493, Final residual = 0.000458998, No Iterations 85
time step continuity errors : sum local = 6.35848e-10, global = 1.55943e-13, cumulative = 3.54073e-08
DICPCG:  Solving for p, Initial residual = 0.00259527, Final residual = 9.59712e-07, No Iterations 395
time step continuity errors : sum local = 1.32465e-12, global = -1.9437e-15, cumulative = 3.54073e-08
ExecutionTime = 22.41 s  ClockTime = 23 s

Time = 1.1

Courant Number mean: 0.00703117 max: 0.141562
smoothSolver:  Solving for Ux, Initial residual = 0.000769908, Final residual = 6.3033e-06, No Iterations 5
smoothSolver:  Solving for Uy, Initial residual = 0.00283465, Final residual = 8.84535e-06, No Iterations 5
DICPCG:  Solving for p, Initial residual = 0.00930802, Final residual = 0.00046238, No Iterations 84
time step continuity errors : sum local = 6.33348e-10, global = 1.38541e-13, cumulative = 3.54074e-08
DICPCG:  Solving for p, Initial residual = 0.00250769, Final residual = 9.96365e-07, No Iterations 393
time step continuity errors : sum local = 1.35971e-12, global = -4.75611e-15, cumulative = 3.54074e-08
ExecutionTime = 23.33 s  ClockTime = 24 s

Time = 1.15

Courant Number mean: 0.00703 max: 0.140524
smoothSolver:  Solving for Ux, Initial residual = 0.000736271, Final residual = 5.92295e-06, No Iterations 5
smoothSolver:  Solving for Uy, Initial residual = 0.00275137, Final residual = 8.42063e-06, No Iterations 5
DICPCG:  Solving for p, Initial residual = 0.0089599, Final residual = 0.000440746, No Iterations 84
time step continuity errors : sum local = 5.97e-10, global = 1.32584e-13, cumulative = 3.54076e-08
DICPCG:  Solving for p, Initial residual = 0.00242083, Final residual = 9.58698e-07, No Iterations 392
time step continuity errors : sum local = 1.29386e-12, global = -6.73492e-15, cumulative = 3.54076e-08
ExecutionTime = 24.25 s  ClockTime = 25 s

Time = 1.2

Courant Number mean: 0.00702887 max: 0.139487
smoothSolver:  Solving for Ux, Initial residual = 0.000705513, Final residual = 5.58152e-06, No Iterations 5
smoothSolver:  Solving for Uy, Initial residual = 0.00267373, Final residual = 8.02933e-06, No Iterations 5
DICPCG:  Solving for p, Initial residual = 0.00872558, Final residual = 0.000427604, No Iterations 84
time step continuity errors : sum local = 5.72956e-10, global = 1.21891e-13, cumulative = 3.54077e-08
DICPCG:  Solving for p, Initial residual = 0.00234574, Final residual = 9.66719e-07, No Iterations 391
time step continuity errors : sum local = 1.29063e-12, global = -7.43377e-15, cumulative = 3.54077e-08
ExecutionTime = 25.16 s  ClockTime = 26 s

Time = 1.25

Courant Number mean: 0.00702776 max: 0.138454
smoothSolver:  Solving for Ux, Initial residual = 0.000677218, Final residual = 5.27372e-06, No Iterations 5
smoothSolver:  Solving for Uy, Initial residual = 0.00260075, Final residual = 7.66894e-06, No Iterations 5
DICPCG:  Solving for p, Initial residual = 0.00847429, Final residual = 0.000419971, No Iterations 82
time step continuity errors : sum local = 5.56781e-10, global = 1.28654e-13, cumulative = 3.54078e-08
DICPCG:  Solving for p, Initial residual = 0.00225494, Final residual = 9.47242e-07, No Iterations 391
time step continuity errors : sum local = 1.25139e-12, global = -8.4358e-15, cumulative = 3.54078e-08
ExecutionTime = 26.07 s  ClockTime = 26 s

Time = 1.3

Courant Number mean: 0.00702668 max: 0.137428
smoothSolver:  Solving for Ux, Initial residual = 0.000651091, Final residual = 9.80289e-06, No Iterations 4
smoothSolver:  Solving for Uy, Initial residual = 0.00253216, Final residual = 7.33455e-06, No Iterations 5
DICPCG:  Solving for p, Initial residual = 0.00869015, Final residual = 0.000424806, No Iterations 99
time step continuity errors : sum local = 5.57305e-10, global = 1.28927e-13, cumulative = 3.54079e-08
DICPCG:  Solving for p, Initial residual = 0.00355913, Final residual = 9.51607e-07, No Iterations 395
time step continuity errors : sum local = 1.24391e-12, global = -6.85797e-15, cumulative = 3.54079e-08
ExecutionTime = 26.99 s  ClockTime = 27 s

Time = 1.35

Courant Number mean: 0.00702564 max: 0.136428
smoothSolver:  Solving for Ux, Initial residual = 0.00062343, Final residual = 9.36496e-06, No Iterations 4
smoothSolver:  Solving for Uy, Initial residual = 0.00244807, Final residual = 7.04302e-06, No Iterations 5
DICPCG:  Solving for p, Initial residual = 0.00828897, Final residual = 0.000401627, No Iterations 85
time step continuity errors : sum local = 5.20763e-10, global = 2.64941e-14, cumulative = 3.54079e-08
DICPCG:  Solving for p, Initial residual = 0.00323167, Final residual = 9.85346e-07, No Iterations 391
time step continuity errors : sum local = 1.2735e-12, global = -9.13588e-15, cumulative = 3.54079e-08
ExecutionTime = 27.88 s  ClockTime = 28 s

Time = 1.4

Courant Number mean: 0.00702461 max: 0.135436
smoothSolver:  Solving for Ux, Initial residual = 0.000601936, Final residual = 8.92966e-06, No Iterations 4
smoothSolver:  Solving for Uy, Initial residual = 0.00239071, Final residual = 6.75706e-06, No Iterations 5
DICPCG:  Solving for p, Initial residual = 0.00809616, Final residual = 0.000396373, No Iterations 89
time step continuity errors : sum local = 5.09109e-10, global = 1.28822e-13, cumulative = 3.54081e-08
DICPCG:  Solving for p, Initial residual = 0.00318268, Final residual = 9.6079e-07, No Iterations 392
time step continuity errors : sum local = 1.22989e-12, global = -1.04878e-14, cumulative = 3.54081e-08
ExecutionTime = 28.76 s  ClockTime = 29 s

Time = 1.45

Courant Number mean: 0.00702361 max: 0.134455
smoothSolver:  Solving for Ux, Initial residual = 0.000581371, Final residual = 8.53155e-06, No Iterations 4
smoothSolver:  Solving for Uy, Initial residual = 0.00233422, Final residual = 6.49076e-06, No Iterations 5
DICPCG:  Solving for p, Initial residual = 0.00791079, Final residual = 0.000391318, No Iterations 86
time step continuity errors : sum local = 4.97696e-10, global = 9.98072e-14, cumulative = 3.54082e-08
DICPCG:  Solving for p, Initial residual = 0.00311144, Final residual = 9.71543e-07, No Iterations 390
time step continuity errors : sum local = 1.23173e-12, global = -1.08534e-14, cumulative = 3.54081e-08
ExecutionTime = 29.64 s  ClockTime = 30 s

Time = 1.5

Courant Number mean: 0.00702263 max: 0.133486
smoothSolver:  Solving for Ux, Initial residual = 0.000562105, Final residual = 8.16358e-06, No Iterations 4
smoothSolver:  Solving for Uy, Initial residual = 0.00228043, Final residual = 6.24209e-06, No Iterations 5
DICPCG:  Solving for p, Initial residual = 0.00774666, Final residual = 0.000384181, No Iterations 86
time step continuity errors : sum local = 4.84038e-10, global = 1.08632e-13, cumulative = 3.54083e-08
DICPCG:  Solving for p, Initial residual = 0.00306232, Final residual = 9.55018e-07, No Iterations 390
time step continuity errors : sum local = 1.19934e-12, global = -1.05398e-14, cumulative = 3.54082e-08
ExecutionTime = 30.52 s  ClockTime = 31 s

Time = 1.55

Courant Number mean: 0.00702166 max: 0.132531
smoothSolver:  Solving for Ux, Initial residual = 0.000544031, Final residual = 7.82276e-06, No Iterations 4
smoothSolver:  Solving for Uy, Initial residual = 0.00222928, Final residual = 6.0089e-06, No Iterations 5
DICPCG:  Solving for p, Initial residual = 0.00761643, Final residual = 0.000375686, No Iterations 86
time step continuity errors : sum local = 4.68921e-10, global = 1.04862e-13, cumulative = 3.54084e-08
DICPCG:  Solving for p, Initial residual = 0.0029999, Final residual = 9.62316e-07, No Iterations 389
time step continuity errors : sum local = 1.19739e-12, global = -1.0915e-14, cumulative = 3.54083e-08
ExecutionTime = 31.4 s  ClockTime = 32 s

Time = 1.6

Courant Number mean: 0.00702072 max: 0.131589
smoothSolver:  Solving for Ux, Initial residual = 0.000527021, Final residual = 7.50637e-06, No Iterations 4
smoothSolver:  Solving for Uy, Initial residual = 0.00218047, Final residual = 5.79023e-06, No Iterations 5
DICPCG:  Solving for p, Initial residual = 0.00749464, Final residual = 0.000367297, No Iterations 86
time step continuity errors : sum local = 4.54281e-10, global = 1.01348e-13, cumulative = 3.54084e-08
DICPCG:  Solving for p, Initial residual = 0.0029442, Final residual = 9.39508e-07, No Iterations 389
time step continuity errors : sum local = 1.15834e-12, global = -1.05638e-14, cumulative = 3.54084e-08
ExecutionTime = 32.29 s  ClockTime = 33 s

Time = 1.65

Courant Number mean: 0.00701979 max: 0.130661
smoothSolver:  Solving for Ux, Initial residual = 0.000510964, Final residual = 7.21185e-06, No Iterations 4
smoothSolver:  Solving for Uy, Initial residual = 0.00213365, Final residual = 5.58463e-06, No Iterations 5
DICPCG:  Solving for p, Initial residual = 0.00729304, Final residual = 0.000358641, No Iterations 86
time step continuity errors : sum local = 4.39575e-10, global = 9.0549e-14, cumulative = 3.54085e-08
DICPCG:  Solving for p, Initial residual = 0.00288317, Final residual = 9.89077e-07, No Iterations 388
time step continuity errors : sum local = 1.20854e-12, global = -1.12018e-14, cumulative = 3.54085e-08
ExecutionTime = 33.16 s  ClockTime = 34 s

Time = 1.7

Courant Number mean: 0.00701888 max: 0.129747
smoothSolver:  Solving for Ux, Initial residual = 0.000495779, Final residual = 6.93694e-06, No Iterations 4
smoothSolver:  Solving for Uy, Initial residual = 0.00208886, Final residual = 5.39107e-06, No Iterations 5
DICPCG:  Solving for p, Initial residual = 0.00717102, Final residual = 0.000351634, No Iterations 86
time step continuity errors : sum local = 4.27172e-10, global = 9.33571e-14, cumulative = 3.54086e-08
DICPCG:  Solving for p, Initial residual = 0.00283462, Final residual = 9.69443e-07, No Iterations 388
time step continuity errors : sum local = 1.17407e-12, global = -1.08212e-14, cumulative = 3.54086e-08
ExecutionTime = 34.04 s  ClockTime = 34 s

Time = 1.75

Courant Number mean: 0.00701798 max: 0.128848
smoothSolver:  Solving for Ux, Initial residual = 0.000481407, Final residual = 6.67964e-06, No Iterations 4
smoothSolver:  Solving for Uy, Initial residual = 0.00204593, Final residual = 5.20871e-06, No Iterations 5
DICPCG:  Solving for p, Initial residual = 0.00704718, Final residual = 0.000345169, No Iterations 86
time step continuity errors : sum local = 4.15667e-10, global = 9.0892e-14, cumulative = 3.54087e-08
DICPCG:  Solving for p, Initial residual = 0.0027857, Final residual = 9.46186e-07, No Iterations 388
time step continuity errors : sum local = 1.13603e-12, global = -1.03506e-14, cumulative = 3.54087e-08
ExecutionTime = 34.92 s  ClockTime = 35 s

Time = 1.8

Courant Number mean: 0.0070171 max: 0.127964
smoothSolver:  Solving for Ux, Initial residual = 0.000467779, Final residual = 6.43855e-06, No Iterations 4
smoothSolver:  Solving for Uy, Initial residual = 0.0020047, Final residual = 5.03633e-06, No Iterations 5
DICPCG:  Solving for p, Initial residual = 0.00693011, Final residual = 0.000339277, No Iterations 86
time step continuity errors : sum local = 4.05089e-10, global = 8.84034e-14, cumulative = 3.54088e-08
DICPCG:  Solving for p, Initial residual = 0.00273942, Final residual = 9.28261e-07, No Iterations 388
time step continuity errors : sum local = 1.10504e-12, global = -1.00185e-14, cumulative = 3.54088e-08
ExecutionTime = 35.79 s  ClockTime = 36 s

Time = 1.85

Courant Number mean: 0.00701623 max: 0.127232
smoothSolver:  Solving for Ux, Initial residual = 0.000454827, Final residual = 6.2123e-06, No Iterations 4
smoothSolver:  Solving for Uy, Initial residual = 0.00196506, Final residual = 9.80451e-06, No Iterations 4
DICPCG:  Solving for p, Initial residual = 0.00674949, Final residual = 0.000337138, No Iterations 85
time step continuity errors : sum local = 3.99166e-10, global = 8.58942e-14, cumulative = 3.54088e-08
DICPCG:  Solving for p, Initial residual = 0.00260666, Final residual = 9.47184e-07, No Iterations 389
time step continuity errors : sum local = 1.11822e-12, global = -1.19693e-14, cumulative = 3.54088e-08
ExecutionTime = 36.67 s  ClockTime = 37 s

Time = 1.9

Courant Number mean: 0.00701538 max: 0.126659
smoothSolver:  Solving for Ux, Initial residual = 0.000442302, Final residual = 6.00094e-06, No Iterations 4
smoothSolver:  Solving for Uy, Initial residual = 0.00192595, Final residual = 9.52079e-06, No Iterations 4
DICPCG:  Solving for p, Initial residual = 0.0066309, Final residual = 0.000323886, No Iterations 85
time step continuity errors : sum local = 3.80301e-10, global = 8.54829e-14, cumulative = 3.54089e-08
DICPCG:  Solving for p, Initial residual = 0.00254626, Final residual = 9.89626e-07, No Iterations 388
time step continuity errors : sum local = 1.15872e-12, global = -1.30697e-14, cumulative = 3.54089e-08
ExecutionTime = 37.54 s  ClockTime = 38 s

Time = 1.95

Courant Number mean: 0.00701454 max: 0.126088
smoothSolver:  Solving for Ux, Initial residual = 0.000430623, Final residual = 5.80083e-06, No Iterations 4
smoothSolver:  Solving for Uy, Initial residual = 0.00188934, Final residual = 9.23175e-06, No Iterations 4
DICPCG:  Solving for p, Initial residual = 0.00654517, Final residual = 0.000319765, No Iterations 85
time step continuity errors : sum local = 3.72437e-10, global = 8.28369e-14, cumulative = 3.5409e-08
DICPCG:  Solving for p, Initial residual = 0.00251479, Final residual = 9.59677e-07, No Iterations 388
time step continuity errors : sum local = 1.11461e-12, global = -1.23112e-14, cumulative = 3.5409e-08
ExecutionTime = 38.41 s  ClockTime = 39 s

Time = 2

Courant Number mean: 0.00701372 max: 0.125521
smoothSolver:  Solving for Ux, Initial residual = 0.000419458, Final residual = 5.61169e-06, No Iterations 4
smoothSolver:  Solving for Uy, Initial residual = 0.00185397, Final residual = 8.96171e-06, No Iterations 4
DICPCG:  Solving for p, Initial residual = 0.00642723, Final residual = 0.000315134, No Iterations 85
time step continuity errors : sum local = 3.64128e-10, global = 8.42915e-14, cumulative = 3.54091e-08
DICPCG:  Solving for p, Initial residual = 0.00247605, Final residual = 9.54855e-07, No Iterations 388
time step continuity errors : sum local = 1.10029e-12, global = -1.19055e-14, cumulative = 3.5409e-08
ExecutionTime = 39.93 s  ClockTime = 40 s

Time = 2.05

Courant Number mean: 0.0070129 max: 0.124956
smoothSolver:  Solving for Ux, Initial residual = 0.000408802, Final residual = 5.43286e-06, No Iterations 4
smoothSolver:  Solving for Uy, Initial residual = 0.00181977, Final residual = 8.70417e-06, No Iterations 4
DICPCG:  Solving for p, Initial residual = 0.00634895, Final residual = 0.000310792, No Iterations 85
time step continuity errors : sum local = 3.56326e-10, global = 7.97819e-14, cumulative = 3.54091e-08
DICPCG:  Solving for p, Initial residual = 0.0024484, Final residual = 9.82778e-07, No Iterations 387
time step continuity errors : sum local = 1.12375e-12, global = -1.25982e-14, cumulative = 3.54091e-08
ExecutionTime = 40.8 s  ClockTime = 41 s

Time = 2.1

Courant Number mean: 0.0070121 max: 0.124396
smoothSolver:  Solving for Ux, Initial residual = 0.000398617, Final residual = 5.26341e-06, No Iterations 4
smoothSolver:  Solving for Uy, Initial residual = 0.0017867, Final residual = 8.45955e-06, No Iterations 4
DICPCG:  Solving for p, Initial residual = 0.0062631, Final residual = 0.000307419, No Iterations 85
time step continuity errors : sum local = 3.49775e-10, global = 7.72117e-14, cumulative = 3.54092e-08
DICPCG:  Solving for p, Initial residual = 0.00241024, Final residual = 9.66443e-07, No Iterations 387
time step continuity errors : sum local = 1.09671e-12, global = -1.21565e-14, cumulative = 3.54092e-08
ExecutionTime = 41.67 s  ClockTime = 42 s

Time = 2.15

Courant Number mean: 0.00701131 max: 0.12384
smoothSolver:  Solving for Ux, Initial residual = 0.000388855, Final residual = 5.10265e-06, No Iterations 4
smoothSolver:  Solving for Uy, Initial residual = 0.00175487, Final residual = 8.22675e-06, No Iterations 4
DICPCG:  Solving for p, Initial residual = 0.00615649, Final residual = 0.000302027, No Iterations 85
time step continuity errors : sum local = 3.41069e-10, global = 7.60306e-14, cumulative = 3.54092e-08
DICPCG:  Solving for p, Initial residual = 0.00238097, Final residual = 9.5423e-07, No Iterations 387
time step continuity errors : sum local = 1.07478e-12, global = -1.1753e-14, cumulative = 3.54092e-08
ExecutionTime = 42.55 s  ClockTime = 43 s

Time = 2.2

Courant Number mean: 0.00701054 max: 0.123776
smoothSolver:  Solving for Ux, Initial residual = 0.000379517, Final residual = 4.95e-06, No Iterations 4
smoothSolver:  Solving for Uy, Initial residual = 0.001724, Final residual = 8.0049e-06, No Iterations 4
DICPCG:  Solving for p, Initial residual = 0.0060468, Final residual = 0.000297224, No Iterations 85
time step continuity errors : sum local = 3.3317e-10, global = 7.34239e-14, cumulative = 3.54093e-08
DICPCG:  Solving for p, Initial residual = 0.00234746, Final residual = 9.79665e-07, No Iterations 386
time step continuity errors : sum local = 1.09535e-12, global = -1.2014e-14, cumulative = 3.54093e-08
ExecutionTime = 43.43 s  ClockTime = 44 s

Time = 2.25

Courant Number mean: 0.00700977 max: 0.123728
smoothSolver:  Solving for Ux, Initial residual = 0.000370569, Final residual = 9.94751e-06, No Iterations 3
smoothSolver:  Solving for Uy, Initial residual = 0.00169411, Final residual = 7.79276e-06, No Iterations 4
DICPCG:  Solving for p, Initial residual = 0.00710143, Final residual = 0.00034569, No Iterations 107
time step continuity errors : sum local = 3.84647e-10, global = -7.11114e-14, cumulative = 3.54092e-08
DICPCG:  Solving for p, Initial residual = 0.00442458, Final residual = 9.89028e-07, No Iterations 394
time step continuity errors : sum local = 1.09768e-12, global = -1.49318e-14, cumulative = 3.54092e-08
ExecutionTime = 44.35 s  ClockTime = 45 s

Time = 2.3

Courant Number mean: 0.00700903 max: 0.123671
smoothSolver:  Solving for Ux, Initial residual = 0.000358371, Final residual = 9.74908e-06, No Iterations 3
smoothSolver:  Solving for Uy, Initial residual = 0.00164172, Final residual = 7.61937e-06, No Iterations 4
DICPCG:  Solving for p, Initial residual = 0.00684221, Final residual = 0.000337627, No Iterations 92
time step continuity errors : sum local = 3.72214e-10, global = -2.82749e-13, cumulative = 3.54089e-08
DICPCG:  Solving for p, Initial residual = 0.00404308, Final residual = 9.45027e-07, No Iterations 391
time step continuity errors : sum local = 1.03962e-12, global = -6.20124e-15, cumulative = 3.54089e-08
ExecutionTime = 45.26 s  ClockTime = 46 s

Time = 2.35

Courant Number mean: 0.00700831 max: 0.123608
smoothSolver:  Solving for Ux, Initial residual = 0.000350938, Final residual = 9.4907e-06, No Iterations 3
smoothSolver:  Solving for Uy, Initial residual = 0.00161721, Final residual = 7.43102e-06, No Iterations 4
DICPCG:  Solving for p, Initial residual = 0.00675136, Final residual = 0.000330669, No Iterations 95
time step continuity errors : sum local = 3.62233e-10, global = 2.33111e-14, cumulative = 3.54089e-08
DICPCG:  Solving for p, Initial residual = 0.00403551, Final residual = 9.78047e-07, No Iterations 391
time step continuity errors : sum local = 1.06889e-12, global = -7.84854e-15, cumulative = 3.54089e-08
ExecutionTime = 46.26 s  ClockTime = 47 s

Time = 2.4

Courant Number mean: 0.00700759 max: 0.123538
smoothSolver:  Solving for Ux, Initial residual = 0.000343249, Final residual = 9.24878e-06, No Iterations 3
smoothSolver:  Solving for Uy, Initial residual = 0.001591, Final residual = 7.25186e-06, No Iterations 4
DICPCG:  Solving for p, Initial residual = 0.00664371, Final residual = 0.000323749, No Iterations 95
time step continuity errors : sum local = 3.52192e-10, global = -4.29855e-14, cumulative = 3.54089e-08
DICPCG:  Solving for p, Initial residual = 0.00398913, Final residual = 9.5271e-07, No Iterations 391
time step continuity errors : sum local = 1.03419e-12, global = -6.70723e-15, cumulative = 3.54089e-08
ExecutionTime = 47.2 s  ClockTime = 48 s

Time = 2.45

Courant Number mean: 0.00700687 max: 0.123462
smoothSolver:  Solving for Ux, Initial residual = 0.000335899, Final residual = 9.01483e-06, No Iterations 3
smoothSolver:  Solving for Uy, Initial residual = 0.00156569, Final residual = 7.07803e-06, No Iterations 4
DICPCG:  Solving for p, Initial residual = 0.00659134, Final residual = 0.000323265, No Iterations 95
time step continuity errors : sum local = 3.49362e-10, global = -3.52018e-14, cumulative = 3.54089e-08
DICPCG:  Solving for p, Initial residual = 0.00394745, Final residual = 9.45805e-07, No Iterations 391
time step continuity errors : sum local = 1.01995e-12, global = -6.69837e-15, cumulative = 3.54088e-08
ExecutionTime = 48.1 s  ClockTime = 49 s

Time = 2.5

Courant Number mean: 0.00700617 max: 0.123381
smoothSolver:  Solving for Ux, Initial residual = 0.000328802, Final residual = 8.78979e-06, No Iterations 3
smoothSolver:  Solving for Uy, Initial residual = 0.00154096, Final residual = 6.91219e-06, No Iterations 4
DICPCG:  Solving for p, Initial residual = 0.00653414, Final residual = 0.000320902, No Iterations 95
time step continuity errors : sum local = 3.44514e-10, global = -3.99936e-14, cumulative = 3.54088e-08
DICPCG:  Solving for p, Initial residual = 0.00390644, Final residual = 9.95345e-07, No Iterations 390
time step continuity errors : sum local = 1.06627e-12, global = -5.55961e-15, cumulative = 3.54088e-08
ExecutionTime = 49.05 s  ClockTime = 50 s

Time = 2.55

Courant Number mean: 0.00700548 max: 0.123295
smoothSolver:  Solving for Ux, Initial residual = 0.000321933, Final residual = 8.57305e-06, No Iterations 3
smoothSolver:  Solving for Uy, Initial residual = 0.00151706, Final residual = 6.75301e-06, No Iterations 4
DICPCG:  Solving for p, Initial residual = 0.00641702, Final residual = 0.000315122, No Iterations 95
time step continuity errors : sum local = 3.36133e-10, global = -3.70225e-14, cumulative = 3.54088e-08
DICPCG:  Solving for p, Initial residual = 0.00385949, Final residual = 9.87896e-07, No Iterations 390
time step continuity errors : sum local = 1.05159e-12, global = -5.38184e-15, cumulative = 3.54088e-08
ExecutionTime = 49.95 s  ClockTime = 50 s

Time = 2.6

Courant Number mean: 0.00700479 max: 0.123203
smoothSolver:  Solving for Ux, Initial residual = 0.000315307, Final residual = 8.36451e-06, No Iterations 3
smoothSolver:  Solving for Uy, Initial residual = 0.00149368, Final residual = 6.60012e-06, No Iterations 4
DICPCG:  Solving for p, Initial residual = 0.00636679, Final residual = 0.000314826, No Iterations 95
time step continuity errors : sum local = 3.33677e-10, global = -3.62667e-14, cumulative = 3.54087e-08
DICPCG:  Solving for p, Initial residual = 0.00382085, Final residual = 9.74268e-07, No Iterations 390
time step continuity errors : sum local = 1.03043e-12, global = -5.11542e-15, cumulative = 3.54087e-08
ExecutionTime = 50.85 s  ClockTime = 51 s

Time = 2.65

Courant Number mean: 0.00700412 max: 0.123107
smoothSolver:  Solving for Ux, Initial residual = 0.000308921, Final residual = 8.16359e-06, No Iterations 3
smoothSolver:  Solving for Uy, Initial residual = 0.00147092, Final residual = 6.45297e-06, No Iterations 4
DICPCG:  Solving for p, Initial residual = 0.00624993, Final residual = 0.000307475, No Iterations 95
time step continuity errors : sum local = 3.23827e-10, global = -3.97435e-14, cumulative = 3.54087e-08
DICPCG:  Solving for p, Initial residual = 0.00377397, Final residual = 9.63265e-07, No Iterations 390
time step continuity errors : sum local = 1.01244e-12, global = -4.88381e-15, cumulative = 3.54087e-08
ExecutionTime = 51.74 s  ClockTime = 52 s

Time = 2.7

Courant Number mean: 0.00700345 max: 0.123006
smoothSolver:  Solving for Ux, Initial residual = 0.000302737, Final residual = 7.97003e-06, No Iterations 3
smoothSolver:  Solving for Uy, Initial residual = 0.00144874, Final residual = 6.31142e-06, No Iterations 4
DICPCG:  Solving for p, Initial residual = 0.00620007, Final residual = 0.000305162, No Iterations 95
time step continuity errors : sum local = 3.19402e-10, global = -3.96556e-14, cumulative = 3.54086e-08
DICPCG:  Solving for p, Initial residual = 0.00374066, Final residual = 9.54778e-07, No Iterations 390
time step continuity errors : sum local = 9.97322e-13, global = -4.67501e-15, cumulative = 3.54086e-08
ExecutionTime = 52.64 s  ClockTime = 53 s

Time = 2.75

Courant Number mean: 0.00700279 max: 0.1229
smoothSolver:  Solving for Ux, Initial residual = 0.000296755, Final residual = 7.78357e-06, No Iterations 3
smoothSolver:  Solving for Uy, Initial residual = 0.00142713, Final residual = 6.17536e-06, No Iterations 4
DICPCG:  Solving for p, Initial residual = 0.00611232, Final residual = 0.000301093, No Iterations 95
time step continuity errors : sum local = 3.13225e-10, global = -3.97024e-14, cumulative = 3.54086e-08
DICPCG:  Solving for p, Initial residual = 0.00369531, Final residual = 9.42631e-07, No Iterations 390
time step continuity errors : sum local = 9.78682e-13, global = -4.43708e-15, cumulative = 3.54086e-08
ExecutionTime = 53.53 s  ClockTime = 54 s

Time = 2.8

Courant Number mean: 0.00700214 max: 0.122791
smoothSolver:  Solving for Ux, Initial residual = 0.000290969, Final residual = 7.60378e-06, No Iterations 3
smoothSolver:  Solving for Uy, Initial residual = 0.0014061, Final residual = 6.04398e-06, No Iterations 4
DICPCG:  Solving for p, Initial residual = 0.00608162, Final residual = 0.000300068, No Iterations 95
time step continuity errors : sum local = 3.10283e-10, global = -3.94175e-14, cumulative = 3.54085e-08
DICPCG:  Solving for p, Initial residual = 0.00366061, Final residual = 9.2962e-07, No Iterations 390
time step continuity errors : sum local = 9.59387e-13, global = -4.16326e-15, cumulative = 3.54085e-08
ExecutionTime = 54.45 s  ClockTime = 55 s

Time = 2.85

Courant Number mean: 0.00700149 max: 0.122677
smoothSolver:  Solving for Ux, Initial residual = 0.000285375, Final residual = 7.43047e-06, No Iterations 3
smoothSolver:  Solving for Uy, Initial residual = 0.00138563, Final residual = 5.9173e-06, No Iterations 4
DICPCG:  Solving for p, Initial residual = 0.00602405, Final residual = 0.000295922, No Iterations 95
time step continuity errors : sum local = 3.04164e-10, global = -4.08613e-14, cumulative = 3.54085e-08
DICPCG:  Solving for p, Initial residual = 0.00362985, Final residual = 9.94377e-07, No Iterations 389
time step continuity errors : sum local = 1.02008e-12, global = -3.40419e-15, cumulative = 3.54085e-08
ExecutionTime = 55.35 s  ClockTime = 56 s

Time = 2.9

Courant Number mean: 0.00700086 max: 0.12256
smoothSolver:  Solving for Ux, Initial residual = 0.000279956, Final residual = 7.26319e-06, No Iterations 3
smoothSolver:  Solving for Uy, Initial residual = 0.00136567, Final residual = 5.79571e-06, No Iterations 4
DICPCG:  Solving for p, Initial residual = 0.00592815, Final residual = 0.000292253, No Iterations 95
time step continuity errors : sum local = 2.98615e-10, global = -3.90156e-14, cumulative = 3.54085e-08
DICPCG:  Solving for p, Initial residual = 0.00358487, Final residual = 9.87981e-07, No Iterations 389
time step continuity errors : sum local = 1.00754e-12, global = -3.10568e-15, cumulative = 3.54085e-08
ExecutionTime = 56.24 s  ClockTime = 57 s

Time = 2.95

Courant Number mean: 0.00700023 max: 0.122439
smoothSolver:  Solving for Ux, Initial residual = 0.000274703, Final residual = 7.10168e-06, No Iterations 3
smoothSolver:  Solving for Uy, Initial residual = 0.00134621, Final residual = 5.67846e-06, No Iterations 4
DICPCG:  Solving for p, Initial residual = 0.00582526, Final residual = 0.000288714, No Iterations 95
time step continuity errors : sum local = 2.93283e-10, global = -4.1101e-14, cumulative = 3.54084e-08
DICPCG:  Solving for p, Initial residual = 0.00354293, Final residual = 9.71301e-07, No Iterations 389
time step continuity errors : sum local = 9.84809e-13, global = -2.92147e-15, cumulative = 3.54084e-08
ExecutionTime = 57.13 s  ClockTime = 58 s

Time = 3

Courant Number mean: 0.00699961 max: 0.122315
smoothSolver:  Solving for Ux, Initial residual = 0.000269615, Final residual = 6.94584e-06, No Iterations 3
smoothSolver:  Solving for Uy, Initial residual = 0.00132719, Final residual = 5.56527e-06, No Iterations 4
DICPCG:  Solving for p, Initial residual = 0.00576486, Final residual = 0.000286028, No Iterations 95
time step continuity errors : sum local = 2.88894e-10, global = -4.00686e-14, cumulative = 3.54084e-08
DICPCG:  Solving for p, Initial residual = 0.0035075, Final residual = 9.64255e-07, No Iterations 389
time step continuity errors : sum local = 9.72119e-13, global = -2.73837e-15, cumulative = 3.54084e-08
ExecutionTime = 58.68 s  ClockTime = 59 s

Time = 3.05

Courant Number mean: 0.006999 max: 0.122188
smoothSolver:  Solving for Ux, Initial residual = 0.000264683, Final residual = 6.79532e-06, No Iterations 3
smoothSolver:  Solving for Uy, Initial residual = 0.00130865, Final residual = 5.45631e-06, No Iterations 4
DICPCG:  Solving for p, Initial residual = 0.00572928, Final residual = 0.000283297, No Iterations 95
time step continuity errors : sum local = 2.84529e-10, global = -4.10001e-14, cumulative = 3.54083e-08
DICPCG:  Solving for p, Initial residual = 0.00347314, Final residual = 9.51261e-07, No Iterations 389
time step continuity errors : sum local = 9.5366e-13, global = -2.54e-15, cumulative = 3.54083e-08
ExecutionTime = 59.57 s  ClockTime = 60 s

Time = 3.1

Courant Number mean: 0.00699839 max: 0.122057
smoothSolver:  Solving for Ux, Initial residual = 0.000259904, Final residual = 6.64981e-06, No Iterations 3
smoothSolver:  Solving for Uy, Initial residual = 0.00129056, Final residual = 5.35118e-06, No Iterations 4
DICPCG:  Solving for p, Initial residual = 0.00569946, Final residual = 0.000282414, No Iterations 95
time step continuity errors : sum local = 2.82073e-10, global = -4.18615e-14, cumulative = 3.54083e-08
DICPCG:  Solving for p, Initial residual = 0.00344234, Final residual = 9.46531e-07, No Iterations 389
time step continuity errors : sum local = 9.43706e-13, global = -2.40096e-15, cumulative = 3.54083e-08
ExecutionTime = 60.46 s  ClockTime = 61 s

Time = 3.15

Courant Number mean: 0.00699779 max: 0.121924
smoothSolver:  Solving for Ux, Initial residual = 0.000255266, Final residual = 6.50922e-06, No Iterations 3
smoothSolver:  Solving for Uy, Initial residual = 0.00127286, Final residual = 5.24995e-06, No Iterations 4
DICPCG:  Solving for p, Initial residual = 0.005648, Final residual = 0.000278625, No Iterations 95
time step continuity errors : sum local = 2.76768e-10, global = -4.09155e-14, cumulative = 3.54082e-08
DICPCG:  Solving for p, Initial residual = 0.00340842, Final residual = 9.3949e-07, No Iterations 389
time step continuity errors : sum local = 9.3157e-13, global = -2.18911e-15, cumulative = 3.54082e-08
ExecutionTime = 61.35 s  ClockTime = 62 s

Time = 3.2

Courant Number mean: 0.0069972 max: 0.121787
smoothSolver:  Solving for Ux, Initial residual = 0.000250769, Final residual = 6.37314e-06, No Iterations 3
smoothSolver:  Solving for Uy, Initial residual = 0.00125568, Final residual = 5.15226e-06, No Iterations 4
DICPCG:  Solving for p, Initial residual = 0.00551966, Final residual = 0.000274003, No Iterations 95
time step continuity errors : sum local = 2.70698e-10, global = -4.12826e-14, cumulative = 3.54082e-08
DICPCG:  Solving for p, Initial residual = 0.00336665, Final residual = 9.29831e-07, No Iterations 389
time step continuity errors : sum local = 9.16988e-13, global = -2.16533e-15, cumulative = 3.54082e-08
ExecutionTime = 62.24 s  ClockTime = 63 s

Time = 3.25

Courant Number mean: 0.00699661 max: 0.121648
smoothSolver:  Solving for Ux, Initial residual = 0.000246403, Final residual = 6.24143e-06, No Iterations 3
smoothSolver:  Solving for Uy, Initial residual = 0.00123886, Final residual = 5.05747e-06, No Iterations 4
DICPCG:  Solving for p, Initial residual = 0.0054708, Final residual = 0.000271542, No Iterations 95
time step continuity errors : sum local = 2.6682e-10, global = -3.87775e-14, cumulative = 3.54082e-08
DICPCG:  Solving for p, Initial residual = 0.00333653, Final residual = 9.24941e-07, No Iterations 389
time step continuity errors : sum local = 9.07255e-13, global = -2.0186e-15, cumulative = 3.54082e-08
ExecutionTime = 63.14 s  ClockTime = 64 s

Time = 3.3

Courant Number mean: 0.00699603 max: 0.121507
smoothSolver:  Solving for Ux, Initial residual = 0.000242162, Final residual = 6.11386e-06, No Iterations 3
smoothSolver:  Solving for Uy, Initial residual = 0.00122245, Final residual = 4.96594e-06, No Iterations 4
DICPCG:  Solving for p, Initial residual = 0.00540518, Final residual = 0.000268908, No Iterations 95
time step continuity errors : sum local = 2.62827e-10, global = -4.40995e-14, cumulative = 3.54081e-08
DICPCG:  Solving for p, Initial residual = 0.00330114, Final residual = 9.10177e-07, No Iterations 389
time step continuity errors : sum local = 8.88061e-13, global = -1.7831e-15, cumulative = 3.54081e-08
ExecutionTime = 64.04 s  ClockTime = 65 s

Time = 3.35

Courant Number mean: 0.00699546 max: 0.121363
smoothSolver:  Solving for Ux, Initial residual = 0.000238039, Final residual = 5.99029e-06, No Iterations 3
smoothSolver:  Solving for Uy, Initial residual = 0.0012064, Final residual = 4.8777e-06, No Iterations 4
DICPCG:  Solving for p, Initial residual = 0.00534106, Final residual = 0.000265671, No Iterations 95
time step continuity errors : sum local = 2.58306e-10, global = -4.31863e-14, cumulative = 3.54081e-08
DICPCG:  Solving for p, Initial residual = 0.00326716, Final residual = 9.05285e-07, No Iterations 389
time step continuity errors : sum local = 8.78694e-13, global = -1.64357e-15, cumulative = 3.54081e-08
ExecutionTime = 64.92 s  ClockTime = 65 s

Time = 3.4

Courant Number mean: 0.00699489 max: 0.121217
smoothSolver:  Solving for Ux, Initial residual = 0.000234032, Final residual = 5.87056e-06, No Iterations 3
smoothSolver:  Solving for Uy, Initial residual = 0.00119078, Final residual = 4.79207e-06, No Iterations 4
DICPCG:  Solving for p, Initial residual = 0.00529717, Final residual = 0.000263715, No Iterations 95
time step continuity errors : sum local = 2.55088e-10, global = -4.19857e-14, cumulative = 3.5408e-08
DICPCG:  Solving for p, Initial residual = 0.00323651, Final residual = 9.93469e-07, No Iterations 388
time step continuity errors : sum local = 9.59379e-13, global = -9.47243e-16, cumulative = 3.5408e-08
ExecutionTime = 65.78 s  ClockTime = 66 s

Time = 3.45

Courant Number mean: 0.00699433 max: 0.121069
smoothSolver:  Solving for Ux, Initial residual = 0.000230139, Final residual = 5.75447e-06, No Iterations 3
smoothSolver:  Solving for Uy, Initial residual = 0.00117554, Final residual = 4.70922e-06, No Iterations 4
DICPCG:  Solving for p, Initial residual = 0.00524364, Final residual = 0.000261545, No Iterations 95
time step continuity errors : sum local = 2.51701e-10, global = -4.14389e-14, cumulative = 3.5408e-08
DICPCG:  Solving for p, Initial residual = 0.003208, Final residual = 9.80215e-07, No Iterations 388
time step continuity errors : sum local = 9.41741e-13, global = -9.24606e-16, cumulative = 3.5408e-08
ExecutionTime = 66.64 s  ClockTime = 67 s

Time = 3.5

Courant Number mean: 0.00699377 max: 0.120919
smoothSolver:  Solving for Ux, Initial residual = 0.000226355, Final residual = 5.64201e-06, No Iterations 3
smoothSolver:  Solving for Uy, Initial residual = 0.00116066, Final residual = 4.62881e-06, No Iterations 4
DICPCG:  Solving for p, Initial residual = 0.0051856, Final residual = 0.000250472, No Iterations 96
time step continuity errors : sum local = 2.39822e-10, global = -5.39089e-14, cumulative = 3.54079e-08
DICPCG:  Solving for p, Initial residual = 0.00317201, Final residual = 9.67224e-07, No Iterations 388
time step continuity errors : sum local = 9.24553e-13, global = -6.77442e-16, cumulative = 3.54079e-08
ExecutionTime = 67.5 s  ClockTime = 68 s

Time = 3.55

Courant Number mean: 0.00699322 max: 0.120767
smoothSolver:  Solving for Ux, Initial residual = 0.000222679, Final residual = 5.53289e-06, No Iterations 3
smoothSolver:  Solving for Uy, Initial residual = 0.0011462, Final residual = 9.85655e-06, No Iterations 3
DICPCG:  Solving for p, Initial residual = 0.00505108, Final residual = 0.000248342, No Iterations 95
time step continuity errors : sum local = 2.36587e-10, global = -7.15554e-14, cumulative = 3.54079e-08
DICPCG:  Solving for p, Initial residual = 0.00303155, Final residual = 9.88997e-07, No Iterations 385
time step continuity errors : sum local = 9.40699e-13, global = -8.74941e-15, cumulative = 3.54078e-08
ExecutionTime = 68.35 s  ClockTime = 69 s

Time = 3.6

Courant Number mean: 0.00699268 max: 0.120614
smoothSolver:  Solving for Ux, Initial residual = 0.000218949, Final residual = 5.4296e-06, No Iterations 3
smoothSolver:  Solving for Uy, Initial residual = 0.00113113, Final residual = 9.7215e-06, No Iterations 3
DICPCG:  Solving for p, Initial residual = 0.00499456, Final residual = 0.000242442, No Iterations 95
time step continuity errors : sum local = 2.29807e-10, global = -6.88692e-14, cumulative = 3.54078e-08
DICPCG:  Solving for p, Initial residual = 0.00297916, Final residual = 9.84743e-07, No Iterations 385
time step continuity errors : sum local = 9.32001e-13, global = -9.31994e-15, cumulative = 3.54078e-08
ExecutionTime = 69.2 s  ClockTime = 70 s

Time = 3.65

Courant Number mean: 0.00699214 max: 0.120459
smoothSolver:  Solving for Ux, Initial residual = 0.000215502, Final residual = 5.32748e-06, No Iterations 3
smoothSolver:  Solving for Uy, Initial residual = 0.00111735, Final residual = 9.5619e-06, No Iterations 3
DICPCG:  Solving for p, Initial residual = 0.00495918, Final residual = 0.000242498, No Iterations 95
time step continuity errors : sum local = 2.28748e-10, global = -6.21356e-14, cumulative = 3.54077e-08
DICPCG:  Solving for p, Initial residual = 0.00295653, Final residual = 9.78197e-07, No Iterations 385
time step continuity errors : sum local = 9.21314e-13, global = -9.41807e-15, cumulative = 3.54077e-08
ExecutionTime = 70.05 s  ClockTime = 71 s

Time = 3.7

Courant Number mean: 0.00699161 max: 0.120303
smoothSolver:  Solving for Ux, Initial residual = 0.000212112, Final residual = 5.22808e-06, No Iterations 3
smoothSolver:  Solving for Uy, Initial residual = 0.00110388, Final residual = 9.41385e-06, No Iterations 3
DICPCG:  Solving for p, Initial residual = 0.00491042, Final residual = 0.000239943, No Iterations 95
time step continuity errors : sum local = 2.2525e-10, global = -6.24268e-14, cumulative = 3.54076e-08
DICPCG:  Solving for p, Initial residual = 0.00293194, Final residual = 9.69556e-07, No Iterations 385
time step continuity errors : sum local = 9.08813e-13, global = -9.22208e-15, cumulative = 3.54076e-08
ExecutionTime = 70.91 s  ClockTime = 71 s

Time = 3.75

Courant Number mean: 0.00699108 max: 0.120145
smoothSolver:  Solving for Ux, Initial residual = 0.000208818, Final residual = 5.13167e-06, No Iterations 3
smoothSolver:  Solving for Uy, Initial residual = 0.00109063, Final residual = 9.26798e-06, No Iterations 3
DICPCG:  Solving for p, Initial residual = 0.00486942, Final residual = 0.000236891, No Iterations 95
time step continuity errors : sum local = 2.21335e-10, global = -6.25148e-14, cumulative = 3.54076e-08
DICPCG:  Solving for p, Initial residual = 0.00290588, Final residual = 9.59723e-07, No Iterations 385
time step continuity errors : sum local = 8.95386e-13, global = -8.96521e-15, cumulative = 3.54075e-08
ExecutionTime = 71.75 s  ClockTime = 72 s

Time = 3.8

Courant Number mean: 0.00699056 max: 0.119986
smoothSolver:  Solving for Ux, Initial residual = 0.000205608, Final residual = 5.03797e-06, No Iterations 3
smoothSolver:  Solving for Uy, Initial residual = 0.00107766, Final residual = 9.12697e-06, No Iterations 3
DICPCG:  Solving for p, Initial residual = 0.00481387, Final residual = 0.000234673, No Iterations 95
time step continuity errors : sum local = 2.18242e-10, global = -5.94748e-14, cumulative = 3.54075e-08
DICPCG:  Solving for p, Initial residual = 0.00287665, Final residual = 9.5067e-07, No Iterations 385
time step continuity errors : sum local = 8.82828e-13, global = -8.92746e-15, cumulative = 3.54075e-08
ExecutionTime = 72.6 s  ClockTime = 73 s

Time = 3.85

Courant Number mean: 0.00699005 max: 0.119825
smoothSolver:  Solving for Ux, Initial residual = 0.000202484, Final residual = 4.94682e-06, No Iterations 3
smoothSolver:  Solving for Uy, Initial residual = 0.001065, Final residual = 8.98855e-06, No Iterations 3
DICPCG:  Solving for p, Initial residual = 0.00481011, Final residual = 0.000238363, No Iterations 94
time step continuity errors : sum local = 2.20649e-10, global = -4.73467e-14, cumulative = 3.54074e-08
DICPCG:  Solving for p, Initial residual = 0.00286398, Final residual = 9.38234e-07, No Iterations 385
time step continuity errors : sum local = 8.67235e-13, global = -8.53918e-15, cumulative = 3.54074e-08
ExecutionTime = 73.45 s  ClockTime = 74 s

Time = 3.9

Courant Number mean: 0.00698954 max: 0.119663
smoothSolver:  Solving for Ux, Initial residual = 0.000199437, Final residual = 4.85821e-06, No Iterations 3
smoothSolver:  Solving for Uy, Initial residual = 0.00105257, Final residual = 8.85418e-06, No Iterations 3
DICPCG:  Solving for p, Initial residual = 0.00471117, Final residual = 0.00023442, No Iterations 94
time step continuity errors : sum local = 2.15998e-10, global = -3.9056e-14, cumulative = 3.54074e-08
DICPCG:  Solving for p, Initial residual = 0.00283194, Final residual = 9.34069e-07, No Iterations 385
time step continuity errors : sum local = 8.59423e-13, global = -8.51922e-15, cumulative = 3.54074e-08
ExecutionTime = 74.3 s  ClockTime = 75 s

Time = 3.95

Courant Number mean: 0.00698903 max: 0.1195
smoothSolver:  Solving for Ux, Initial residual = 0.000196471, Final residual = 4.77202e-06, No Iterations 3
smoothSolver:  Solving for Uy, Initial residual = 0.00104042, Final residual = 8.72346e-06, No Iterations 3
DICPCG:  Solving for p, Initial residual = 0.00465828, Final residual = 0.000231515, No Iterations 94
time step continuity errors : sum local = 2.12356e-10, global = -3.70915e-14, cumulative = 3.54073e-08
DICPCG:  Solving for p, Initial residual = 0.0028025, Final residual = 9.99813e-07, No Iterations 384
time step continuity errors : sum local = 9.15797e-13, global = -7.0347e-15, cumulative = 3.54073e-08
ExecutionTime = 75.16 s  ClockTime = 76 s

Time = 4

Courant Number mean: 0.00698853 max: 0.119336
smoothSolver:  Solving for Ux, Initial residual = 0.000193579, Final residual = 4.68811e-06, No Iterations 3
smoothSolver:  Solving for Uy, Initial residual = 0.00102855, Final residual = 8.59588e-06, No Iterations 3
DICPCG:  Solving for p, Initial residual = 0.00462135, Final residual = 0.000230086, No Iterations 94
time step continuity errors : sum local = 2.1011e-10, global = -4.11372e-14, cumulative = 3.54073e-08
DICPCG:  Solving for p, Initial residual = 0.00278016, Final residual = 9.95188e-07, No Iterations 384
time step continuity errors : sum local = 9.07545e-13, global = -6.82075e-15, cumulative = 3.54073e-08
ExecutionTime = 76.64 s  ClockTime = 77 s

Time = 4.05

Courant Number mean: 0.00698803 max: 0.119171
smoothSolver:  Solving for Ux, Initial residual = 0.000190757, Final residual = 4.60651e-06, No Iterations 3
smoothSolver:  Solving for Uy, Initial residual = 0.00101692, Final residual = 8.47191e-06, No Iterations 3
DICPCG:  Solving for p, Initial residual = 0.0045889, Final residual = 0.000227973, No Iterations 94
time step continuity errors : sum local = 2.0727e-10, global = -3.86542e-14, cumulative = 3.54072e-08
DICPCG:  Solving for p, Initial residual = 0.00275741, Final residual = 9.84111e-07, No Iterations 384
time step continuity errors : sum local = 8.93522e-13, global = -6.48254e-15, cumulative = 3.54072e-08
ExecutionTime = 77.49 s  ClockTime = 78 s

Time = 4.1

Courant Number mean: 0.00698754 max: 0.119005
smoothSolver:  Solving for Ux, Initial residual = 0.000188005, Final residual = 4.52704e-06, No Iterations 3
smoothSolver:  Solving for Uy, Initial residual = 0.00100555, Final residual = 8.35052e-06, No Iterations 3
DICPCG:  Solving for p, Initial residual = 0.00453486, Final residual = 0.000224895, No Iterations 94
time step continuity errors : sum local = 2.03586e-10, global = -3.91926e-14, cumulative = 3.54072e-08
DICPCG:  Solving for p, Initial residual = 0.00273135, Final residual = 9.53736e-07, No Iterations 384
time step continuity errors : sum local = 8.62218e-13, global = -6.53147e-15, cumulative = 3.54072e-08
ExecutionTime = 78.38 s  ClockTime = 79 s

Time = 4.15

Courant Number mean: 0.00698705 max: 0.118839
smoothSolver:  Solving for Ux, Initial residual = 0.000185319, Final residual = 4.44965e-06, No Iterations 3
smoothSolver:  Solving for Uy, Initial residual = 0.000994423, Final residual = 8.23226e-06, No Iterations 3
DICPCG:  Solving for p, Initial residual = 0.00452382, Final residual = 0.000224997, No Iterations 94
time step continuity errors : sum local = 2.02801e-10, global = -3.83471e-14, cumulative = 3.54072e-08
DICPCG:  Solving for p, Initial residual = 0.0027113, Final residual = 9.62083e-07, No Iterations 384
time step continuity errors : sum local = 8.65981e-13, global = -6.29405e-15, cumulative = 3.54072e-08
ExecutionTime = 79.22 s  ClockTime = 80 s

Time = 4.2

Courant Number mean: 0.00698657 max: 0.118671
smoothSolver:  Solving for Ux, Initial residual = 0.000182699, Final residual = 9.83904e-06, No Iterations 2
smoothSolver:  Solving for Uy, Initial residual = 0.000983514, Final residual = 8.11633e-06, No Iterations 3
DICPCG:  Solving for p, Initial residual = 0.00663038, Final residual = 0.000331237, No Iterations 119
time step continuity errors : sum local = 2.97246e-10, global = -3.76719e-13, cumulative = 3.54068e-08
DICPCG:  Solving for p, Initial residual = 0.00575579, Final residual = 9.61897e-07, No Iterations 395
time step continuity errors : sum local = 8.61772e-13, global = -9.04638e-15, cumulative = 3.54068e-08
ExecutionTime = 80.12 s  ClockTime = 81 s

Time = 4.25

Courant Number mean: 0.00698612 max: 0.118505
smoothSolver:  Solving for Ux, Initial residual = 0.000176734, Final residual = 9.81442e-06, No Iterations 2
smoothSolver:  Solving for Uy, Initial residual = 0.000947503, Final residual = 8.06943e-06, No Iterations 3
DICPCG:  Solving for p, Initial residual = 0.00650273, Final residual = 0.000324425, No Iterations 98
time step continuity errors : sum local = 2.88975e-10, global = -4.41203e-13, cumulative = 3.54063e-08
DICPCG:  Solving for p, Initial residual = 0.00535584, Final residual = 9.57889e-07, No Iterations 393
time step continuity errors : sum local = 8.52341e-13, global = -4.29127e-15, cumulative = 3.54063e-08
ExecutionTime = 80.98 s  ClockTime = 81 s

Time = 4.3

Courant Number mean: 0.00698566 max: 0.118338
smoothSolver:  Solving for Ux, Initial residual = 0.000174821, Final residual = 9.66395e-06, No Iterations 2
smoothSolver:  Solving for Uy, Initial residual = 0.000940026, Final residual = 7.96497e-06, No Iterations 3
DICPCG:  Solving for p, Initial residual = 0.00643528, Final residual = 0.000312007, No Iterations 102
time step continuity errors : sum local = 2.76968e-10, global = -2.44664e-13, cumulative = 3.54061e-08
DICPCG:  Solving for p, Initial residual = 0.00535662, Final residual = 9.58214e-07, No Iterations 394
time step continuity errors : sum local = 8.49495e-13, global = -3.39255e-15, cumulative = 3.54061e-08
ExecutionTime = 81.85 s  ClockTime = 82 s

Time = 4.35

Courant Number mean: 0.00698521 max: 0.118171
smoothSolver:  Solving for Ux, Initial residual = 0.00017254, Final residual = 9.52716e-06, No Iterations 2
smoothSolver:  Solving for Uy, Initial residual = 0.000930468, Final residual = 7.85953e-06, No Iterations 3
DICPCG:  Solving for p, Initial residual = 0.00632649, Final residual = 0.000304938, No Iterations 102
time step continuity errors : sum local = 2.69545e-10, global = -2.889e-13, cumulative = 3.54058e-08
DICPCG:  Solving for p, Initial residual = 0.00530488, Final residual = 9.35595e-07, No Iterations 394
time step continuity errors : sum local = 8.26065e-13, global = -2.72459e-15, cumulative = 3.54058e-08
ExecutionTime = 82.73 s  ClockTime = 83 s

Time = 4.4

Courant Number mean: 0.00698476 max: 0.118003
smoothSolver:  Solving for Ux, Initial residual = 0.000170338, Final residual = 9.39017e-06, No Iterations 2
smoothSolver:  Solving for Uy, Initial residual = 0.000921245, Final residual = 7.75963e-06, No Iterations 3
DICPCG:  Solving for p, Initial residual = 0.0062769, Final residual = 0.00030369, No Iterations 102
time step continuity errors : sum local = 2.67387e-10, global = -2.7951e-13, cumulative = 3.54055e-08
DICPCG:  Solving for p, Initial residual = 0.00526844, Final residual = 9.81399e-07, No Iterations 393
time step continuity errors : sum local = 8.63089e-13, global = -2.2647e-15, cumulative = 3.54055e-08
ExecutionTime = 83.6 s  ClockTime = 84 s

Time = 4.45

Courant Number mean: 0.00698431 max: 0.117835
smoothSolver:  Solving for Ux, Initial residual = 0.000168172, Final residual = 9.25541e-06, No Iterations 2
smoothSolver:  Solving for Uy, Initial residual = 0.000912132, Final residual = 7.66274e-06, No Iterations 3
DICPCG:  Solving for p, Initial residual = 0.00625505, Final residual = 0.000302564, No Iterations 102
time step continuity errors : sum local = 2.65358e-10, global = -2.78592e-13, cumulative = 3.54052e-08
DICPCG:  Solving for p, Initial residual = 0.00523609, Final residual = 9.88923e-07, No Iterations 393
time step continuity errors : sum local = 8.66377e-13, global = -2.09644e-15, cumulative = 3.54052e-08
ExecutionTime = 84.47 s  ClockTime = 85 s

Time = 4.5

Courant Number mean: 0.00698387 max: 0.117666
smoothSolver:  Solving for Ux, Initial residual = 0.00016605, Final residual = 9.1229e-06, No Iterations 2
smoothSolver:  Solving for Uy, Initial residual = 0.000903171, Final residual = 7.56839e-06, No Iterations 3
DICPCG:  Solving for p, Initial residual = 0.00619615, Final residual = 0.000299876, No Iterations 102
time step continuity errors : sum local = 2.61984e-10, global = -2.76659e-13, cumulative = 3.54049e-08
DICPCG:  Solving for p, Initial residual = 0.00519374, Final residual = 9.8047e-07, No Iterations 393
time step continuity errors : sum local = 8.55592e-13, global = -2.06689e-15, cumulative = 3.54049e-08
ExecutionTime = 85.33 s  ClockTime = 86 s

Time = 4.55

Courant Number mean: 0.00698344 max: 0.117497
smoothSolver:  Solving for Ux, Initial residual = 0.000163968, Final residual = 8.99263e-06, No Iterations 2
smoothSolver:  Solving for Uy, Initial residual = 0.00089438, Final residual = 7.47592e-06, No Iterations 3
DICPCG:  Solving for p, Initial residual = 0.00614474, Final residual = 0.000297258, No Iterations 102
time step continuity errors : sum local = 2.58689e-10, global = -2.73555e-13, cumulative = 3.54047e-08
DICPCG:  Solving for p, Initial residual = 0.00515376, Final residual = 9.82747e-07, No Iterations 393
time step continuity errors : sum local = 8.5429e-13, global = -1.93982e-15, cumulative = 3.54047e-08
ExecutionTime = 86.2 s  ClockTime = 87 s

Time = 4.6

Courant Number mean: 0.006983 max: 0.117328
smoothSolver:  Solving for Ux, Initial residual = 0.000161927, Final residual = 8.86472e-06, No Iterations 2
smoothSolver:  Solving for Uy, Initial residual = 0.000885733, Final residual = 7.38577e-06, No Iterations 3
DICPCG:  Solving for p, Initial residual = 0.00608185, Final residual = 0.000294185, No Iterations 102
time step continuity errors : sum local = 2.55042e-10, global = -2.70366e-13, cumulative = 3.54044e-08
DICPCG:  Solving for p, Initial residual = 0.00511756, Final residual = 9.73546e-07, No Iterations 393
time step continuity errors : sum local = 8.43095e-13, global = -1.96323e-15, cumulative = 3.54044e-08
ExecutionTime = 87.08 s  ClockTime = 88 s

Time = 4.65

Courant Number mean: 0.00698257 max: 0.117159
smoothSolver:  Solving for Ux, Initial residual = 0.00015993, Final residual = 8.73936e-06, No Iterations 2
smoothSolver:  Solving for Uy, Initial residual = 0.000877212, Final residual = 7.29683e-06, No Iterations 3
DICPCG:  Solving for p, Initial residual = 0.00606035, Final residual = 0.00029224, No Iterations 102
time step continuity errors : sum local = 2.52405e-10, global = -2.68869e-13, cumulative = 3.54041e-08
DICPCG:  Solving for p, Initial residual = 0.00508226, Final residual = 9.71192e-07, No Iterations 393
time step continuity errors : sum local = 8.37899e-13, global = -1.87425e-15, cumulative = 3.54041e-08
ExecutionTime = 87.95 s  ClockTime = 88 s

Time = 4.7

Courant Number mean: 0.00698215 max: 0.11699
smoothSolver:  Solving for Ux, Initial residual = 0.000157974, Final residual = 8.61633e-06, No Iterations 2
smoothSolver:  Solving for Uy, Initial residual = 0.000868837, Final residual = 7.21013e-06, No Iterations 3
DICPCG:  Solving for p, Initial residual = 0.00602186, Final residual = 0.000290675, No Iterations 102
time step continuity errors : sum local = 2.50127e-10, global = -2.6564e-13, cumulative = 3.54039e-08
DICPCG:  Solving for p, Initial residual = 0.00504974, Final residual = 9.6695e-07, No Iterations 393
time step continuity errors : sum local = 8.31204e-13, global = -1.82055e-15, cumulative = 3.54039e-08
ExecutionTime = 88.82 s  ClockTime = 89 s

Time = 4.75

Courant Number mean: 0.00698172 max: 0.11682
smoothSolver:  Solving for Ux, Initial residual = 0.000156057, Final residual = 8.49575e-06, No Iterations 2
smoothSolver:  Solving for Uy, Initial residual = 0.000860594, Final residual = 7.1256e-06, No Iterations 3
DICPCG:  Solving for p, Initial residual = 0.0059714, Final residual = 0.000288525, No Iterations 102
time step continuity errors : sum local = 2.47369e-10, global = -2.63514e-13, cumulative = 3.54036e-08
DICPCG:  Solving for p, Initial residual = 0.00500888, Final residual = 9.66057e-07, No Iterations 393
time step continuity errors : sum local = 8.2737e-13, global = -1.66748e-15, cumulative = 3.54036e-08
ExecutionTime = 89.68 s  ClockTime = 90 s

Time = 4.8

Courant Number mean: 0.00698131 max: 0.116651
smoothSolver:  Solving for Ux, Initial residual = 0.00015418, Final residual = 8.37743e-06, No Iterations 2
smoothSolver:  Solving for Uy, Initial residual = 0.000852499, Final residual = 7.04269e-06, No Iterations 3
DICPCG:  Solving for p, Initial residual = 0.00591212, Final residual = 0.000286155, No Iterations 102
time step continuity errors : sum local = 2.44443e-10, global = -2.61398e-13, cumulative = 3.54033e-08
DICPCG:  Solving for p, Initial residual = 0.00496961, Final residual = 9.47584e-07, No Iterations 393
time step continuity errors : sum local = 8.08625e-13, global = -1.6942e-15, cumulative = 3.54033e-08
ExecutionTime = 90.56 s  ClockTime = 91 s

Time = 4.85

Courant Number mean: 0.00698089 max: 0.116481
smoothSolver:  Solving for Ux, Initial residual = 0.000152341, Final residual = 8.26145e-06, No Iterations 2
smoothSolver:  Solving for Uy, Initial residual = 0.000844558, Final residual = 6.96167e-06, No Iterations 3
DICPCG:  Solving for p, Initial residual = 0.00586479, Final residual = 0.000284505, No Iterations 102
time step continuity errors : sum local = 2.42176e-10, global = -2.57572e-13, cumulative = 3.54031e-08
DICPCG:  Solving for p, Initial residual = 0.00493343, Final residual = 9.61214e-07, No Iterations 393
time step continuity errors : sum local = 8.17403e-13, global = -1.5692e-15, cumulative = 3.54031e-08
ExecutionTime = 91.42 s  ClockTime = 92 s

Time = 4.9

Courant Number mean: 0.00698048 max: 0.116312
smoothSolver:  Solving for Ux, Initial residual = 0.000150542, Final residual = 8.14783e-06, No Iterations 2
smoothSolver:  Solving for Uy, Initial residual = 0.000836705, Final residual = 6.88231e-06, No Iterations 3
DICPCG:  Solving for p, Initial residual = 0.00586318, Final residual = 0.000284273, No Iterations 102
time step continuity errors : sum local = 2.41126e-10, global = -2.56898e-13, cumulative = 3.54028e-08
DICPCG:  Solving for p, Initial residual = 0.00489964, Final residual = 9.528e-07, No Iterations 393
time step continuity errors : sum local = 8.07348e-13, global = -1.44963e-15, cumulative = 3.54028e-08
ExecutionTime = 92.29 s  ClockTime = 93 s

Time = 4.95

Courant Number mean: 0.00698007 max: 0.116142
smoothSolver:  Solving for Ux, Initial residual = 0.000148766, Final residual = 8.03626e-06, No Iterations 2
smoothSolver:  Solving for Uy, Initial residual = 0.000829093, Final residual = 6.80442e-06, No Iterations 3
DICPCG:  Solving for p, Initial residual = 0.00576837, Final residual = 0.000279668, No Iterations 102
time step continuity errors : sum local = 2.3639e-10, global = -2.52251e-13, cumulative = 3.54026e-08
DICPCG:  Solving for p, Initial residual = 0.00486202, Final residual = 9.40201e-07, No Iterations 393
time step continuity errors : sum local = 7.93914e-13, global = -1.37928e-15, cumulative = 3.54026e-08
ExecutionTime = 93.16 s  ClockTime = 94 s

Time = 5

Courant Number mean: 0.00697966 max: 0.115973
smoothSolver:  Solving for Ux, Initial residual = 0.000147033, Final residual = 7.92688e-06, No Iterations 2
smoothSolver:  Solving for Uy, Initial residual = 0.000821564, Final residual = 6.72808e-06, No Iterations 3
DICPCG:  Solving for p, Initial residual = 0.0057067, Final residual = 0.000277144, No Iterations 102
time step continuity errors : sum local = 2.33449e-10, global = -2.50967e-13, cumulative = 3.54023e-08
DICPCG:  Solving for p, Initial residual = 0.00482547, Final residual = 9.40432e-07, No Iterations 393
time step continuity errors : sum local = 7.91375e-13, global = -1.30198e-15, cumulative = 3.54023e-08
ExecutionTime = 94.7 s  ClockTime = 95 s

Time = 5.05

Courant Number mean: 0.00697926 max: 0.115803
smoothSolver:  Solving for Ux, Initial residual = 0.000145335, Final residual = 7.8197e-06, No Iterations 2
smoothSolver:  Solving for Uy, Initial residual = 0.000814136, Final residual = 6.65364e-06, No Iterations 3
DICPCG:  Solving for p, Initial residual = 0.00565513, Final residual = 0.000274312, No Iterations 102
time step continuity errors : sum local = 2.30279e-10, global = -2.48526e-13, cumulative = 3.54021e-08
DICPCG:  Solving for p, Initial residual = 0.00478921, Final residual = 9.87914e-07, No Iterations 392
time step continuity errors : sum local = 8.28538e-13, global = -9.78056e-17, cumulative = 3.54021e-08
ExecutionTime = 95.58 s  ClockTime = 96 s

Time = 5.1

Courant Number mean: 0.00697886 max: 0.115634
smoothSolver:  Solving for Ux, Initial residual = 0.000143671, Final residual = 7.71466e-06, No Iterations 2
smoothSolver:  Solving for Uy, Initial residual = 0.000806836, Final residual = 6.58055e-06, No Iterations 3
DICPCG:  Solving for p, Initial residual = 0.00561645, Final residual = 0.000272384, No Iterations 102
time step continuity errors : sum local = 2.27899e-10, global = -2.46175e-13, cumulative = 3.54018e-08
DICPCG:  Solving for p, Initial residual = 0.00475401, Final residual = 9.81785e-07, No Iterations 392
time step continuity errors : sum local = 8.20671e-13, global = -5.01527e-17, cumulative = 3.54018e-08
ExecutionTime = 96.48 s  ClockTime = 97 s

Time = 5.15

Courant Number mean: 0.00697847 max: 0.115465
smoothSolver:  Solving for Ux, Initial residual = 0.000142042, Final residual = 7.6117e-06, No Iterations 2
smoothSolver:  Solving for Uy, Initial residual = 0.000799674, Final residual = 6.5088e-06, No Iterations 3
DICPCG:  Solving for p, Initial residual = 0.00557618, Final residual = 0.000270349, No Iterations 102
time step continuity errors : sum local = 2.25453e-10, global = -2.43308e-13, cumulative = 3.54016e-08
DICPCG:  Solving for p, Initial residual = 0.00471919, Final residual = 9.76898e-07, No Iterations 392
time step continuity errors : sum local = 8.1391e-13, global = 6.89385e-17, cumulative = 3.54016e-08
ExecutionTime = 97.38 s  ClockTime = 98 s

Time = 5.2

Courant Number mean: 0.00697807 max: 0.115296
smoothSolver:  Solving for Ux, Initial residual = 0.000140446, Final residual = 7.51079e-06, No Iterations 2
smoothSolver:  Solving for Uy, Initial residual = 0.00079261, Final residual = 6.43856e-06, No Iterations 3
DICPCG:  Solving for p, Initial residual = 0.00553302, Final residual = 0.000267881, No Iterations 102
time step continuity errors : sum local = 2.22666e-10, global = -2.41838e-13, cumulative = 3.54013e-08
DICPCG:  Solving for p, Initial residual = 0.00468525, Final residual = 9.94066e-07, No Iterations 392
time step continuity errors : sum local = 8.25513e-13, global = 2.44476e-16, cumulative = 3.54013e-08
ExecutionTime = 98.29 s  ClockTime = 99 s

Time = 5.25

Courant Number mean: 0.00697768 max: 0.115127
smoothSolver:  Solving for Ux, Initial residual = 0.000138881, Final residual = 7.4119e-06, No Iterations 2
smoothSolver:  Solving for Uy, Initial residual = 0.000785675, Final residual = 6.36966e-06, No Iterations 3
DICPCG:  Solving for p, Initial residual = 0.00549577, Final residual = 0.00026605, No Iterations 102
time step continuity errors : sum local = 2.20431e-10, global = -2.39943e-13, cumulative = 3.54011e-08
DICPCG:  Solving for p, Initial residual = 0.00465114, Final residual = 9.75025e-07, No Iterations 392
time step continuity errors : sum local = 8.07102e-13, global = 2.80335e-16, cumulative = 3.54011e-08
ExecutionTime = 99.16 s  ClockTime = 100 s

Time = 5.3

Courant Number mean: 0.0069773 max: 0.114958
smoothSolver:  Solving for Ux, Initial residual = 0.000137346, Final residual = 7.31493e-06, No Iterations 2
smoothSolver:  Solving for Uy, Initial residual = 0.000778853, Final residual = 6.30215e-06, No Iterations 3
DICPCG:  Solving for p, Initial residual = 0.00547335, Final residual = 0.000264997, No Iterations 102
time step continuity errors : sum local = 2.18864e-10, global = -2.36813e-13, cumulative = 3.54008e-08
DICPCG:  Solving for p, Initial residual = 0.00462025, Final residual = 9.89088e-07, No Iterations 392
time step continuity errors : sum local = 8.16177e-13, global = 5.33671e-16, cumulative = 3.54008e-08
ExecutionTime = 100.04 s  ClockTime = 101 s

Time = 5.35

Courant Number mean: 0.00697691 max: 0.11479
smoothSolver:  Solving for Ux, Initial residual = 0.000135839, Final residual = 7.21987e-06, No Iterations 2
smoothSolver:  Solving for Uy, Initial residual = 0.000772148, Final residual = 6.23625e-06, No Iterations 3
DICPCG:  Solving for p, Initial residual = 0.00542969, Final residual = 0.00026307, No Iterations 102
time step continuity errors : sum local = 2.16597e-10, global = -2.35455e-13, cumulative = 3.54006e-08
DICPCG:  Solving for p, Initial residual = 0.00458617, Final residual = 9.59901e-07, No Iterations 392
time step continuity errors : sum local = 7.89644e-13, global = 4.00893e-16, cumulative = 3.54006e-08
ExecutionTime = 100.91 s  ClockTime = 101 s

Time = 5.4

Courant Number mean: 0.00697653 max: 0.114622
smoothSolver:  Solving for Ux, Initial residual = 0.00013436, Final residual = 7.12668e-06, No Iterations 2
smoothSolver:  Solving for Uy, Initial residual = 0.000765546, Final residual = 6.17128e-06, No Iterations 3
DICPCG:  Solving for p, Initial residual = 0.00537934, Final residual = 0.000260658, No Iterations 102
time step continuity errors : sum local = 2.13948e-10, global = -2.3128e-13, cumulative = 3.54004e-08
DICPCG:  Solving for p, Initial residual = 0.00455349, Final residual = 9.63801e-07, No Iterations 392
time step continuity errors : sum local = 7.90382e-13, global = 5.84182e-16, cumulative = 3.54004e-08
ExecutionTime = 101.78 s  ClockTime = 102 s

Time = 5.45

Courant Number mean: 0.00697615 max: 0.114454
smoothSolver:  Solving for Ux, Initial residual = 0.000132912, Final residual = 7.03525e-06, No Iterations 2
smoothSolver:  Solving for Uy, Initial residual = 0.000759071, Final residual = 6.1077e-06, No Iterations 3
[...]
time step continuity errors : sum local = 5.14495e-13, global = 7.03028e-15, cumulative = 3.52312e-08
ExecutionTime = 649.45 s  ClockTime = 650 s

Time = 38.7

Courant Number mean: 0.0068804 max: 0.0692099
smoothSolver:  Solving for Ux, Initial residual = 2.17177e-05, Final residual = 1.66434e-06, No Iterations 1
smoothSolver:  Solving for Uy, Initial residual = 0.000182323, Final residual = 7.36589e-06, No Iterations 1
DICPCG:  Solving for p, Initial residual = 0.00190811, Final residual = 9.48332e-05, No Iterations 98
time step continuity errors : sum local = 5.1952e-11, global = -6.12411e-14, cumulative = 3.52311e-08
DICPCG:  Solving for p, Initial residual = 0.00187305, Final residual = 9.67204e-07, No Iterations 280
time step continuity errors : sum local = 5.29872e-13, global = -5.34835e-14, cumulative = 3.52311e-08
ExecutionTime = 650.12 s  ClockTime = 651 s

Time = 38.75

Courant Number mean: 0.00688032 max: 0.0691831
smoothSolver:  Solving for Ux, Initial residual = 2.16971e-05, Final residual = 1.66185e-06, No Iterations 1
smoothSolver:  Solving for Uy, Initial residual = 0.000182205, Final residual = 7.35655e-06, No Iterations 1
DICPCG:  Solving for p, Initial residual = 0.00189995, Final residual = 9.48407e-05, No Iterations 98
time step continuity errors : sum local = 5.19439e-11, global = -1.76131e-13, cumulative = 3.52309e-08
DICPCG:  Solving for p, Initial residual = 0.00187029, Final residual = 9.47094e-07, No Iterations 373
time step continuity errors : sum local = 5.18726e-13, global = 7.0021e-15, cumulative = 3.52309e-08
ExecutionTime = 650.94 s  ClockTime = 652 s

Time = 38.8

Courant Number mean: 0.00688024 max: 0.0691562
smoothSolver:  Solving for Ux, Initial residual = 2.16778e-05, Final residual = 1.65926e-06, No Iterations 1
smoothSolver:  Solving for Uy, Initial residual = 0.000182073, Final residual = 7.34711e-06, No Iterations 1
DICPCG:  Solving for p, Initial residual = 0.00188921, Final residual = 9.3945e-05, No Iterations 98
time step continuity errors : sum local = 5.14481e-11, global = -5.75834e-14, cumulative = 3.52308e-08
DICPCG:  Solving for p, Initial residual = 0.00186691, Final residual = 9.85361e-07, No Iterations 279
time step continuity errors : sum local = 5.39629e-13, global = -4.91544e-14, cumulative = 3.52308e-08
ExecutionTime = 651.61 s  ClockTime = 653 s

Time = 38.85

Courant Number mean: 0.00688016 max: 0.0691295
smoothSolver:  Solving for Ux, Initial residual = 2.16571e-05, Final residual = 1.65675e-06, No Iterations 1
smoothSolver:  Solving for Uy, Initial residual = 0.000181959, Final residual = 7.33779e-06, No Iterations 1
DICPCG:  Solving for p, Initial residual = 0.0019037, Final residual = 9.50831e-05, No Iterations 98
time step continuity errors : sum local = 5.20582e-11, global = -1.66608e-13, cumulative = 3.52306e-08
DICPCG:  Solving for p, Initial residual = 0.00186807, Final residual = 9.92307e-07, No Iterations 372
time step continuity errors : sum local = 5.43293e-13, global = 6.65155e-15, cumulative = 3.52306e-08
ExecutionTime = 652.43 s  ClockTime = 653 s

Time = 38.9

Courant Number mean: 0.00688008 max: 0.0691027
smoothSolver:  Solving for Ux, Initial residual = 2.1638e-05, Final residual = 1.65418e-06, No Iterations 1
smoothSolver:  Solving for Uy, Initial residual = 0.000181824, Final residual = 7.32842e-06, No Iterations 1
DICPCG:  Solving for p, Initial residual = 0.00188443, Final residual = 9.41986e-05, No Iterations 98
time step continuity errors : sum local = 5.15682e-11, global = -6.23645e-14, cumulative = 3.52306e-08
DICPCG:  Solving for p, Initial residual = 0.00186327, Final residual = 9.60465e-07, No Iterations 280
time step continuity errors : sum local = 5.25806e-13, global = -5.32698e-14, cumulative = 3.52305e-08
ExecutionTime = 653.11 s  ClockTime = 654 s

Time = 38.95

Courant Number mean: 0.00687999 max: 0.069076
smoothSolver:  Solving for Ux, Initial residual = 2.16175e-05, Final residual = 1.65169e-06, No Iterations 1
smoothSolver:  Solving for Uy, Initial residual = 0.000181713, Final residual = 7.31923e-06, No Iterations 1
DICPCG:  Solving for p, Initial residual = 0.00188036, Final residual = 9.37307e-05, No Iterations 98
time step continuity errors : sum local = 5.12998e-11, global = -1.74414e-13, cumulative = 3.52303e-08
DICPCG:  Solving for p, Initial residual = 0.00186082, Final residual = 9.89904e-07, No Iterations 372
time step continuity errors : sum local = 5.41792e-13, global = 6.64676e-15, cumulative = 3.52303e-08
ExecutionTime = 653.92 s  ClockTime = 655 s

Time = 39

Courant Number mean: 0.00687991 max: 0.0690494
smoothSolver:  Solving for Ux, Initial residual = 2.15986e-05, Final residual = 1.64916e-06, No Iterations 1
smoothSolver:  Solving for Uy, Initial residual = 0.000181574, Final residual = 7.3097e-06, No Iterations 1
DICPCG:  Solving for p, Initial residual = 0.00187233, Final residual = 9.35926e-05, No Iterations 98
time step continuity errors : sum local = 5.12192e-11, global = -5.75182e-14, cumulative = 3.52303e-08
DICPCG:  Solving for p, Initial residual = 0.00185814, Final residual = 9.48136e-07, No Iterations 280
time step continuity errors : sum local = 5.18879e-13, global = -4.93895e-14, cumulative = 3.52302e-08
ExecutionTime = 655.26 s  ClockTime = 656 s

Time = 39.05

Courant Number mean: 0.00687983 max: 0.0690228
smoothSolver:  Solving for Ux, Initial residual = 2.15782e-05, Final residual = 1.64668e-06, No Iterations 1
smoothSolver:  Solving for Uy, Initial residual = 0.00018146, Final residual = 7.3005e-06, No Iterations 1
DICPCG:  Solving for p, Initial residual = 0.0018695, Final residual = 9.31594e-05, No Iterations 98
time step continuity errors : sum local = 5.097e-11, global = -1.6727e-13, cumulative = 3.52301e-08
DICPCG:  Solving for p, Initial residual = 0.00185584, Final residual = 9.88719e-07, No Iterations 372
time step continuity errors : sum local = 5.40966e-13, global = 6.56226e-15, cumulative = 3.52301e-08
ExecutionTime = 656.07 s  ClockTime = 657 s

Time = 39.1

Courant Number mean: 0.00687975 max: 0.0689963
smoothSolver:  Solving for Ux, Initial residual = 2.15592e-05, Final residual = 1.64417e-06, No Iterations 1
smoothSolver:  Solving for Uy, Initial residual = 0.000181323, Final residual = 7.29105e-06, No Iterations 1
DICPCG:  Solving for p, Initial residual = 0.00187097, Final residual = 9.21577e-05, No Iterations 99
time step continuity errors : sum local = 5.04174e-11, global = -6.32587e-14, cumulative = 3.523e-08
DICPCG:  Solving for p, Initial residual = 0.00185418, Final residual = 9.45147e-07, No Iterations 280
time step continuity errors : sum local = 5.17074e-13, global = -5.37875e-14, cumulative = 3.523e-08
ExecutionTime = 656.75 s  ClockTime = 658 s

Time = 39.15

Courant Number mean: 0.00687967 max: 0.0689698
smoothSolver:  Solving for Ux, Initial residual = 2.15389e-05, Final residual = 1.6417e-06, No Iterations 1
smoothSolver:  Solving for Uy, Initial residual = 0.000181215, Final residual = 7.28191e-06, No Iterations 1
DICPCG:  Solving for p, Initial residual = 0.00187082, Final residual = 9.26901e-05, No Iterations 99
time step continuity errors : sum local = 5.06967e-11, global = -1.76847e-13, cumulative = 3.52298e-08
DICPCG:  Solving for p, Initial residual = 0.00185208, Final residual = 9.73526e-07, No Iterations 372
time step continuity errors : sum local = 5.3248e-13, global = 6.71433e-15, cumulative = 3.52298e-08
ExecutionTime = 657.57 s  ClockTime = 659 s

Time = 39.2

Courant Number mean: 0.00687959 max: 0.0689433
smoothSolver:  Solving for Ux, Initial residual = 2.15203e-05, Final residual = 1.63919e-06, No Iterations 1
smoothSolver:  Solving for Uy, Initial residual = 0.000181078, Final residual = 7.27254e-06, No Iterations 1
DICPCG:  Solving for p, Initial residual = 0.00186261, Final residual = 9.16541e-05, No Iterations 99
time step continuity errors : sum local = 5.01258e-11, global = -5.72793e-14, cumulative = 3.52297e-08
DICPCG:  Solving for p, Initial residual = 0.00184934, Final residual = 9.96284e-07, No Iterations 279
time step continuity errors : sum local = 5.44876e-13, global = -4.92126e-14, cumulative = 3.52297e-08
ExecutionTime = 658.24 s  ClockTime = 659 s

Time = 39.25

Courant Number mean: 0.00687951 max: 0.0689169
smoothSolver:  Solving for Ux, Initial residual = 2.15e-05, Final residual = 1.63675e-06, No Iterations 1
smoothSolver:  Solving for Uy, Initial residual = 0.000180966, Final residual = 7.26348e-06, No Iterations 1
DICPCG:  Solving for p, Initial residual = 0.00186078, Final residual = 9.16079e-05, No Iterations 99
time step continuity errors : sum local = 5.00889e-11, global = -1.6758e-13, cumulative = 3.52295e-08
DICPCG:  Solving for p, Initial residual = 0.00184697, Final residual = 9.70586e-07, No Iterations 372
time step continuity errors : sum local = 5.30703e-13, global = 6.6027e-15, cumulative = 3.52295e-08
ExecutionTime = 659.06 s  ClockTime = 660 s

Time = 39.3

Courant Number mean: 0.00687944 max: 0.0688905
smoothSolver:  Solving for Ux, Initial residual = 2.14813e-05, Final residual = 1.63426e-06, No Iterations 1
smoothSolver:  Solving for Uy, Initial residual = 0.000180831, Final residual = 7.25413e-06, No Iterations 1
DICPCG:  Solving for p, Initial residual = 0.00185908, Final residual = 9.14735e-05, No Iterations 99
time step continuity errors : sum local = 5.00111e-11, global = -6.18287e-14, cumulative = 3.52295e-08
DICPCG:  Solving for p, Initial residual = 0.00184497, Final residual = 9.30642e-07, No Iterations 280
time step continuity errors : sum local = 5.08813e-13, global = -5.21876e-14, cumulative = 3.52294e-08
ExecutionTime = 659.74 s  ClockTime = 661 s

Time = 39.35

Courant Number mean: 0.00687936 max: 0.0688642
smoothSolver:  Solving for Ux, Initial residual = 2.14612e-05, Final residual = 1.63182e-06, No Iterations 1
smoothSolver:  Solving for Uy, Initial residual = 0.000180719, Final residual = 7.2451e-06, No Iterations 1
DICPCG:  Solving for p, Initial residual = 0.00185884, Final residual = 9.13735e-05, No Iterations 99
time step continuity errors : sum local = 4.9945e-11, global = -1.73691e-13, cumulative = 3.52292e-08
DICPCG:  Solving for p, Initial residual = 0.00184252, Final residual = 9.57755e-07, No Iterations 372
time step continuity errors : sum local = 5.23525e-13, global = 6.57442e-15, cumulative = 3.52292e-08
ExecutionTime = 660.55 s  ClockTime = 662 s

Time = 39.4

Courant Number mean: 0.00687928 max: 0.068838
smoothSolver:  Solving for Ux, Initial residual = 2.14426e-05, Final residual = 1.62934e-06, No Iterations 1
smoothSolver:  Solving for Uy, Initial residual = 0.000180584, Final residual = 7.23577e-06, No Iterations 1
DICPCG:  Solving for p, Initial residual = 0.00185786, Final residual = 9.26763e-05, No Iterations 98
time step continuity errors : sum local = 5.06534e-11, global = -5.54046e-14, cumulative = 3.52292e-08
DICPCG:  Solving for p, Initial residual = 0.00184016, Final residual = 9.93358e-07, No Iterations 279
time step continuity errors : sum local = 5.4294e-13, global = -4.8429e-14, cumulative = 3.52291e-08
ExecutionTime = 661.22 s  ClockTime = 662 s

Time = 39.45

Courant Number mean: 0.0068792 max: 0.0688117
smoothSolver:  Solving for Ux, Initial residual = 2.14227e-05, Final residual = 1.62693e-06, No Iterations 1
smoothSolver:  Solving for Uy, Initial residual = 0.000180468, Final residual = 7.22676e-06, No Iterations 1
DICPCG:  Solving for p, Initial residual = 0.00185346, Final residual = 9.23546e-05, No Iterations 98
time step continuity errors : sum local = 5.04658e-11, global = -1.64247e-13, cumulative = 3.5229e-08
DICPCG:  Solving for p, Initial residual = 0.00183908, Final residual = 9.71631e-07, No Iterations 372
time step continuity errors : sum local = 5.30941e-13, global = 6.31081e-15, cumulative = 3.5229e-08
ExecutionTime = 662.04 s  ClockTime = 663 s

Time = 39.5

Courant Number mean: 0.00687912 max: 0.0687856
smoothSolver:  Solving for Ux, Initial residual = 2.1404e-05, Final residual = 1.62447e-06, No Iterations 1
smoothSolver:  Solving for Uy, Initial residual = 0.000180335, Final residual = 7.21763e-06, No Iterations 1
DICPCG:  Solving for p, Initial residual = 0.00185311, Final residual = 9.10905e-05, No Iterations 99
time step continuity errors : sum local = 4.97699e-11, global = -6.41433e-14, cumulative = 3.52289e-08
DICPCG:  Solving for p, Initial residual = 0.00183715, Final residual = 9.36155e-07, No Iterations 280
time step continuity errors : sum local = 5.11497e-13, global = -5.39835e-14, cumulative = 3.52289e-08
ExecutionTime = 662.71 s  ClockTime = 664 s

Time = 39.55

Courant Number mean: 0.00687904 max: 0.0687594
smoothSolver:  Solving for Ux, Initial residual = 2.1384e-05, Final residual = 1.62204e-06, No Iterations 1
smoothSolver:  Solving for Uy, Initial residual = 0.000180232, Final residual = 7.20874e-06, No Iterations 1
DICPCG:  Solving for p, Initial residual = 0.0018466, Final residual = 9.11629e-05, No Iterations 99
time step continuity errors : sum local = 4.97976e-11, global = -1.7657e-13, cumulative = 3.52287e-08
DICPCG:  Solving for p, Initial residual = 0.00183439, Final residual = 9.56284e-07, No Iterations 372
time step continuity errors : sum local = 5.22379e-13, global = 6.45921e-15, cumulative = 3.52287e-08
ExecutionTime = 663.55 s  ClockTime = 665 s

Time = 39.6

Courant Number mean: 0.00687896 max: 0.0687333
smoothSolver:  Solving for Ux, Initial residual = 2.13656e-05, Final residual = 1.61959e-06, No Iterations 1
smoothSolver:  Solving for Uy, Initial residual = 0.000180098, Final residual = 7.19947e-06, No Iterations 1
DICPCG:  Solving for p, Initial residual = 0.00184946, Final residual = 9.08513e-05, No Iterations 99
time step continuity errors : sum local = 4.96232e-11, global = -5.59748e-14, cumulative = 3.52286e-08
DICPCG:  Solving for p, Initial residual = 0.00183311, Final residual = 9.81442e-07, No Iterations 279
time step continuity errors : sum local = 5.36068e-13, global = -4.80781e-14, cumulative = 3.52286e-08
ExecutionTime = 664.22 s  ClockTime = 665 s

Time = 39.65

Courant Number mean: 0.00687888 max: 0.0687073
smoothSolver:  Solving for Ux, Initial residual = 2.13457e-05, Final residual = 1.61719e-06, No Iterations 1
smoothSolver:  Solving for Uy, Initial residual = 0.000179988, Final residual = 7.19067e-06, No Iterations 1
DICPCG:  Solving for p, Initial residual = 0.00184421, Final residual = 9.08187e-05, No Iterations 99
time step continuity errors : sum local = 4.95936e-11, global = -1.64909e-13, cumulative = 3.52284e-08
DICPCG:  Solving for p, Initial residual = 0.00183027, Final residual = 9.41035e-07, No Iterations 372
time step continuity errors : sum local = 5.13884e-13, global = 6.32916e-15, cumulative = 3.52284e-08
ExecutionTime = 665.04 s  ClockTime = 666 s

Time = 39.7

Courant Number mean: 0.0068788 max: 0.0686813
smoothSolver:  Solving for Ux, Initial residual = 2.13273e-05, Final residual = 1.61475e-06, No Iterations 1
smoothSolver:  Solving for Uy, Initial residual = 0.000179855, Final residual = 7.18157e-06, No Iterations 1
DICPCG:  Solving for p, Initial residual = 0.00184153, Final residual = 9.05974e-05, No Iterations 99
time step continuity errors : sum local = 4.94683e-11, global = -6.19291e-14, cumulative = 3.52284e-08
DICPCG:  Solving for p, Initial residual = 0.00182817, Final residual = 9.92721e-07, No Iterations 279
time step continuity errors : sum local = 5.42055e-13, global = -5.27443e-14, cumulative = 3.52283e-08
ExecutionTime = 665.7 s  ClockTime = 667 s

Time = 39.75

Courant Number mean: 0.00687872 max: 0.0686553
smoothSolver:  Solving for Ux, Initial residual = 2.13075e-05, Final residual = 1.61237e-06, No Iterations 1
smoothSolver:  Solving for Uy, Initial residual = 0.000179747, Final residual = 7.17276e-06, No Iterations 1
DICPCG:  Solving for p, Initial residual = 0.00183878, Final residual = 9.06886e-05, No Iterations 99
time step continuity errors : sum local = 4.95067e-11, global = -1.73186e-13, cumulative = 3.52281e-08
DICPCG:  Solving for p, Initial residual = 0.00182626, Final residual = 9.53357e-07, No Iterations 372
time step continuity errors : sum local = 5.20446e-13, global = 6.32965e-15, cumulative = 3.52281e-08
ExecutionTime = 666.52 s  ClockTime = 668 s

Time = 39.8

Courant Number mean: 0.00687864 max: 0.0686294
smoothSolver:  Solving for Ux, Initial residual = 2.12892e-05, Final residual = 1.60994e-06, No Iterations 1
smoothSolver:  Solving for Uy, Initial residual = 0.000179613, Final residual = 7.16357e-06, No Iterations 1
DICPCG:  Solving for p, Initial residual = 0.00183742, Final residual = 9.04596e-05, No Iterations 99
time step continuity errors : sum local = 4.93776e-11, global = -5.71304e-14, cumulative = 3.52281e-08
DICPCG:  Solving for p, Initial residual = 0.00182416, Final residual = 9.79541e-07, No Iterations 279
time step continuity errors : sum local = 5.34689e-13, global = -4.91519e-14, cumulative = 3.5228e-08
ExecutionTime = 667.2 s  ClockTime = 668 s

Time = 39.85

Courant Number mean: 0.00687856 max: 0.0686036
smoothSolver:  Solving for Ux, Initial residual = 2.12695e-05, Final residual = 1.60757e-06, No Iterations 1
smoothSolver:  Solving for Uy, Initial residual = 0.000179505, Final residual = 7.15475e-06, No Iterations 1
DICPCG:  Solving for p, Initial residual = 0.00183669, Final residual = 9.04565e-05, No Iterations 99
time step continuity errors : sum local = 4.93645e-11, global = -1.66581e-13, cumulative = 3.52279e-08
DICPCG:  Solving for p, Initial residual = 0.00182196, Final residual = 9.44407e-07, No Iterations 372
time step continuity errors : sum local = 5.15398e-13, global = 6.21915e-15, cumulative = 3.52279e-08
ExecutionTime = 668.02 s  ClockTime = 669 s

Time = 39.9

Courant Number mean: 0.00687848 max: 0.0685778
smoothSolver:  Solving for Ux, Initial residual = 2.12512e-05, Final residual = 1.60516e-06, No Iterations 1
smoothSolver:  Solving for Uy, Initial residual = 0.000179373, Final residual = 7.14561e-06, No Iterations 1
DICPCG:  Solving for p, Initial residual = 0.00183905, Final residual = 9.05432e-05, No Iterations 99
time step continuity errors : sum local = 4.94076e-11, global = -6.03525e-14, cumulative = 3.52278e-08
DICPCG:  Solving for p, Initial residual = 0.00182046, Final residual = 9.85275e-07, No Iterations 279
time step continuity errors : sum local = 5.37652e-13, global = -5.25475e-14, cumulative = 3.52278e-08
ExecutionTime = 668.69 s  ClockTime = 670 s

Time = 39.95

Courant Number mean: 0.0068784 max: 0.068552
smoothSolver:  Solving for Ux, Initial residual = 2.12314e-05, Final residual = 1.60279e-06, No Iterations 1
smoothSolver:  Solving for Uy, Initial residual = 0.000179266, Final residual = 7.1368e-06, No Iterations 1
DICPCG:  Solving for p, Initial residual = 0.00184564, Final residual = 9.12621e-05, No Iterations 99
time step continuity errors : sum local = 4.9789e-11, global = -1.72495e-13, cumulative = 3.52276e-08
DICPCG:  Solving for p, Initial residual = 0.0018191, Final residual = 9.3376e-07, No Iterations 372
time step continuity errors : sum local = 5.09435e-13, global = 6.19758e-15, cumulative = 3.52276e-08
ExecutionTime = 669.51 s  ClockTime = 671 s

Time = 40

Courant Number mean: 0.00687833 max: 0.0685263
smoothSolver:  Solving for Ux, Initial residual = 2.12132e-05, Final residual = 1.60038e-06, No Iterations 1
smoothSolver:  Solving for Uy, Initial residual = 0.000179136, Final residual = 7.12772e-06, No Iterations 1
DICPCG:  Solving for p, Initial residual = 0.00184085, Final residual = 9.13544e-05, No Iterations 99
time step continuity errors : sum local = 4.9835e-11, global = -5.67799e-14, cumulative = 3.52275e-08
DICPCG:  Solving for p, Initial residual = 0.00181776, Final residual = 9.67332e-07, No Iterations 279
time step continuity errors : sum local = 5.2769e-13, global = -4.67762e-14, cumulative = 3.52275e-08
ExecutionTime = 670.83 s  ClockTime = 672 s

End

