/*---------------------------------------------------------------------------*\
  =========                 |
  \\      /  F ield         | OpenFOAM: The Open Source CFD Toolbox
   \\    /   O peration     | Website:  https://openfoam.org
    \\  /    A nd           | Version:  7
     \\/     M anipulation  |
\*---------------------------------------------------------------------------*/
Build  : 7-49b2b3b8b082
Exec   : icoFoam
Date   : May 14 2021
Time   : 01:21:40
Host   : "c468-093.stampede2.tacc.utexas.edu"
PID    : 115390
I/O    : uncollated
Case   : /work2/06782/kenmeyer/stampede2/final_serial/COE347/finalProject/wedge1
nProcs : 1
sigFpe : Enabling floating point exception trapping (FOAM_SIGFPE).
fileModificationChecking : Monitoring run-time modified files using timeStampMaster (fileModificationSkew 10)
allowSystemOperations : Allowing user-supplied system call operations

// * * * * * * * * * * * * * * * * * * * * * * * * * * * * * * * * * * * * * //
Create time

Create mesh for time = 0

Reading transportProperties

Reading field p

Reading field U

Reading/calculating face flux field phi


Starting time loop

Time = 0.01

Courant Number mean: 0.00140873 max: 0.0311802
smoothSolver:  Solving for Ux, Initial residual = 1, Final residual = 7.20171e-06, No Iterations 6
smoothSolver:  Solving for Uy, Initial residual = 0, Final residual = 0, No Iterations 0
DICPCG:  Solving for p, Initial residual = 1, Final residual = 0.048462, No Iterations 373
time step continuity errors : sum local = 2.31434e-08, global = 2.23576e-10, cumulative = 2.23576e-10
DICPCG:  Solving for p, Initial residual = 0.127381, Final residual = 9.18971e-07, No Iterations 490
time step continuity errors : sum local = 4.23419e-12, global = -4.05487e-16, cumulative = 2.23576e-10
ExecutionTime = 2.29 s  ClockTime = 2 s

Time = 0.02

Courant Number mean: 0.00141364 max: 0.0752874
smoothSolver:  Solving for Ux, Initial residual = 0.308, Final residual = 8.959e-06, No Iterations 4
smoothSolver:  Solving for Uy, Initial residual = 0.161344, Final residual = 4.64707e-06, No Iterations 4
DICPCG:  Solving for p, Initial residual = 0.143594, Final residual = 0.00713675, No Iterations 367
time step continuity errors : sum local = 3.19902e-08, global = -2.51064e-10, cumulative = -2.74884e-11
DICPCG:  Solving for p, Initial residual = 0.470672, Final residual = 9.08336e-07, No Iterations 508
time step continuity errors : sum local = 1.15631e-12, global = -8.61461e-16, cumulative = -2.74893e-11
ExecutionTime = 3.91 s  ClockTime = 4 s

Time = 0.03

Courant Number mean: 0.00141379 max: 0.0709669
smoothSolver:  Solving for Ux, Initial residual = 0.0109742, Final residual = 2.06245e-06, No Iterations 4
smoothSolver:  Solving for Uy, Initial residual = 0.00338203, Final residual = 1.63927e-06, No Iterations 3
DICPCG:  Solving for p, Initial residual = 0.434485, Final residual = 0.0215189, No Iterations 102
time step continuity errors : sum local = 8.88182e-09, global = -7.65078e-12, cumulative = -3.51401e-11
DICPCG:  Solving for p, Initial residual = 0.111247, Final residual = 9.9069e-07, No Iterations 480
time step continuity errors : sum local = 3.23786e-13, global = -4.97422e-15, cumulative = -3.51451e-11
ExecutionTime = 5.01 s  ClockTime = 5 s

Time = 0.04

Courant Number mean: 0.00141324 max: 0.0637627
smoothSolver:  Solving for Ux, Initial residual = 0.00975534, Final residual = 8.59272e-06, No Iterations 3
smoothSolver:  Solving for Uy, Initial residual = 0.00362367, Final residual = 6.46767e-06, No Iterations 2
DICPCG:  Solving for p, Initial residual = 0.140046, Final residual = 0.00679333, No Iterations 91
time step continuity errors : sum local = 2.17302e-09, global = 1.59533e-12, cumulative = -3.35497e-11
DICPCG:  Solving for p, Initial residual = 0.0277715, Final residual = 9.7194e-07, No Iterations 456
time step continuity errors : sum local = 2.90695e-13, global = 1.95131e-15, cumulative = -3.35478e-11
ExecutionTime = 6.05 s  ClockTime = 6 s

Time = 0.05

Courant Number mean: 0.00141281 max: 0.0583717
smoothSolver:  Solving for Ux, Initial residual = 0.00598208, Final residual = 5.85619e-06, No Iterations 3
smoothSolver:  Solving for Uy, Initial residual = 0.00283847, Final residual = 5.73443e-06, No Iterations 2
DICPCG:  Solving for p, Initial residual = 0.0882697, Final residual = 0.00435006, No Iterations 89
time step continuity errors : sum local = 1.21188e-09, global = -3.93867e-14, cumulative = -3.35872e-11
DICPCG:  Solving for p, Initial residual = 0.0146623, Final residual = 9.72855e-07, No Iterations 436
time step continuity errors : sum local = 2.62486e-13, global = 1.84059e-15, cumulative = -3.35853e-11
ExecutionTime = 7.04 s  ClockTime = 7 s

Time = 0.06

Courant Number mean: 0.00141243 max: 0.0544694
smoothSolver:  Solving for Ux, Initial residual = 0.00427222, Final residual = 4.34249e-06, No Iterations 3
smoothSolver:  Solving for Uy, Initial residual = 0.00242828, Final residual = 5.04937e-06, No Iterations 2
DICPCG:  Solving for p, Initial residual = 0.0672282, Final residual = 0.00335228, No Iterations 89
time step continuity errors : sum local = 8.68625e-10, global = 2.12198e-14, cumulative = -3.35641e-11
DICPCG:  Solving for p, Initial residual = 0.0106041, Final residual = 9.42173e-07, No Iterations 429
time step continuity errors : sum local = 2.39114e-13, global = 1.66179e-15, cumulative = -3.35624e-11
ExecutionTime = 8.01 s  ClockTime = 8 s

Time = 0.07

Courant Number mean: 0.0014121 max: 0.0530241
smoothSolver:  Solving for Ux, Initial residual = 0.00328012, Final residual = 3.39658e-06, No Iterations 3
smoothSolver:  Solving for Uy, Initial residual = 0.00213686, Final residual = 4.51631e-06, No Iterations 2
DICPCG:  Solving for p, Initial residual = 0.0535535, Final residual = 0.00263344, No Iterations 89
time step continuity errors : sum local = 6.49281e-10, global = 1.19308e-14, cumulative = -3.35505e-11
DICPCG:  Solving for p, Initial residual = 0.00797498, Final residual = 9.39804e-07, No Iterations 426
time step continuity errors : sum local = 2.28572e-13, global = 8.62267e-16, cumulative = -3.35496e-11
ExecutionTime = 9 s  ClockTime = 9 s

Time = 0.08

Courant Number mean: 0.0014118 max: 0.051597
smoothSolver:  Solving for Ux, Initial residual = 0.00264529, Final residual = 2.7568e-06, No Iterations 3
smoothSolver:  Solving for Uy, Initial residual = 0.00192141, Final residual = 4.08716e-06, No Iterations 2
DICPCG:  Solving for p, Initial residual = 0.0439361, Final residual = 0.00219638, No Iterations 86
time step continuity errors : sum local = 5.22598e-10, global = 1.37059e-14, cumulative = -3.35359e-11
DICPCG:  Solving for p, Initial residual = 0.00629884, Final residual = 9.91274e-07, No Iterations 422
time step continuity errors : sum local = 2.33562e-13, global = 1.09898e-15, cumulative = -3.35348e-11
ExecutionTime = 9.97 s  ClockTime = 10 s

Time = 0.09

Courant Number mean: 0.00141153 max: 0.0502224
smoothSolver:  Solving for Ux, Initial residual = 0.00221045, Final residual = 2.29855e-06, No Iterations 3
smoothSolver:  Solving for Uy, Initial residual = 0.00175607, Final residual = 3.73349e-06, No Iterations 2
DICPCG:  Solving for p, Initial residual = 0.0368487, Final residual = 0.00180439, No Iterations 86
time step continuity errors : sum local = 4.18013e-10, global = 1.29195e-14, cumulative = -3.35219e-11
DICPCG:  Solving for p, Initial residual = 0.00515867, Final residual = 9.56674e-07, No Iterations 420
time step continuity errors : sum local = 2.20065e-13, global = 7.40059e-16, cumulative = -3.35212e-11
ExecutionTime = 10.93 s  ClockTime = 11 s

Time = 0.1

Courant Number mean: 0.00141128 max: 0.0489161
smoothSolver:  Solving for Ux, Initial residual = 0.00189623, Final residual = 1.95617e-06, No Iterations 3
smoothSolver:  Solving for Uy, Initial residual = 0.00162529, Final residual = 3.43901e-06, No Iterations 2
DICPCG:  Solving for p, Initial residual = 0.03134, Final residual = 0.00154408, No Iterations 85
time step continuity errors : sum local = 3.50374e-10, global = 1.06096e-14, cumulative = -3.35106e-11
DICPCG:  Solving for p, Initial residual = 0.00437586, Final residual = 9.07471e-07, No Iterations 419
time step continuity errors : sum local = 2.04771e-13, global = 4.99841e-16, cumulative = -3.35101e-11
ExecutionTime = 11.91 s  ClockTime = 12 s

Time = 0.11

Courant Number mean: 0.00141104 max: 0.0476843
smoothSolver:  Solving for Ux, Initial residual = 0.00165937, Final residual = 1.6921e-06, No Iterations 3
smoothSolver:  Solving for Uy, Initial residual = 0.00151935, Final residual = 3.18875e-06, No Iterations 2
DICPCG:  Solving for p, Initial residual = 0.0275001, Final residual = 0.001354, No Iterations 83
time step continuity errors : sum local = 3.02061e-10, global = 8.4073e-15, cumulative = -3.35017e-11
DICPCG:  Solving for p, Initial residual = 0.0037534, Final residual = 9.38928e-07, No Iterations 418
time step continuity errors : sum local = 2.08479e-13, global = 4.35945e-16, cumulative = -3.35012e-11
ExecutionTime = 12.87 s  ClockTime = 13 s

Time = 0.12

Courant Number mean: 0.00141082 max: 0.0465275
smoothSolver:  Solving for Ux, Initial residual = 0.00147526, Final residual = 9.05786e-06, No Iterations 2
smoothSolver:  Solving for Uy, Initial residual = 0.00143172, Final residual = 2.97338e-06, No Iterations 2
DICPCG:  Solving for p, Initial residual = 0.0238565, Final residual = 0.00118579, No Iterations 86
time step continuity errors : sum local = 2.60689e-10, global = 8.91536e-15, cumulative = -3.34923e-11
DICPCG:  Solving for p, Initial residual = 0.00374162, Final residual = 9.27924e-07, No Iterations 415
time step continuity errors : sum local = 2.03169e-13, global = -6.25974e-16, cumulative = -3.34929e-11
ExecutionTime = 13.82 s  ClockTime = 14 s

Time = 0.13

Courant Number mean: 0.00141062 max: 0.0454456
smoothSolver:  Solving for Ux, Initial residual = 0.00132643, Final residual = 8.0559e-06, No Iterations 2
smoothSolver:  Solving for Uy, Initial residual = 0.00135441, Final residual = 2.78505e-06, No Iterations 2
DICPCG:  Solving for p, Initial residual = 0.0214224, Final residual = 0.0010647, No Iterations 83
time step continuity errors : sum local = 2.3106e-10, global = 7.86112e-15, cumulative = -3.34851e-11
DICPCG:  Solving for p, Initial residual = 0.00333587, Final residual = 9.19767e-07, No Iterations 415
time step continuity errors : sum local = 1.98879e-13, global = -2.61371e-16, cumulative = -3.34853e-11
ExecutionTime = 14.77 s  ClockTime = 15 s

Time = 0.14

Courant Number mean: 0.00141042 max: 0.0444321
smoothSolver:  Solving for Ux, Initial residual = 0.0012068, Final residual = 7.22919e-06, No Iterations 2
smoothSolver:  Solving for Uy, Initial residual = 0.00129096, Final residual = 2.62056e-06, No Iterations 2
DICPCG:  Solving for p, Initial residual = 0.0191581, Final residual = 0.000938567, No Iterations 83
time step continuity errors : sum local = 2.01382e-10, global = 6.49334e-15, cumulative = -3.34788e-11
DICPCG:  Solving for p, Initial residual = 0.00303336, Final residual = 9.58676e-07, No Iterations 413
time step continuity errors : sum local = 2.04984e-13, global = -2.16752e-16, cumulative = -3.34791e-11
ExecutionTime = 15.69 s  ClockTime = 16 s

Time = 0.15

Courant Number mean: 0.00141024 max: 0.0434823
smoothSolver:  Solving for Ux, Initial residual = 0.00110716, Final residual = 6.53811e-06, No Iterations 2
smoothSolver:  Solving for Uy, Initial residual = 0.0012358, Final residual = 2.47473e-06, No Iterations 2
DICPCG:  Solving for p, Initial residual = 0.0174984, Final residual = 0.000870117, No Iterations 81
time step continuity errors : sum local = 1.84727e-10, global = 5.20027e-15, cumulative = -3.34739e-11
DICPCG:  Solving for p, Initial residual = 0.00277684, Final residual = 9.61863e-07, No Iterations 412
time step continuity errors : sum local = 2.03516e-13, global = -3.98552e-17, cumulative = -3.34739e-11
ExecutionTime = 16.61 s  ClockTime = 17 s

Time = 0.16

Courant Number mean: 0.00141006 max: 0.0425914
smoothSolver:  Solving for Ux, Initial residual = 0.00102281, Final residual = 5.95324e-06, No Iterations 2
smoothSolver:  Solving for Uy, Initial residual = 0.00118715, Final residual = 2.34472e-06, No Iterations 2
DICPCG:  Solving for p, Initial residual = 0.0160432, Final residual = 0.000797788, No Iterations 81
time step continuity errors : sum local = 1.67723e-10, global = 4.99948e-15, cumulative = -3.34689e-11
DICPCG:  Solving for p, Initial residual = 0.00257371, Final residual = 9.42721e-07, No Iterations 411
time step continuity errors : sum local = 1.97594e-13, global = 3.28057e-18, cumulative = -3.34689e-11
ExecutionTime = 17.53 s  ClockTime = 18 s

Time = 0.17

Courant Number mean: 0.00140989 max: 0.0421141
smoothSolver:  Solving for Ux, Initial residual = 0.000950565, Final residual = 5.45307e-06, No Iterations 2
smoothSolver:  Solving for Uy, Initial residual = 0.00114386, Final residual = 2.22761e-06, No Iterations 2
DICPCG:  Solving for p, Initial residual = 0.0148353, Final residual = 0.00072607, No Iterations 81
time step continuity errors : sum local = 1.51265e-10, global = 4.66058e-15, cumulative = -3.34642e-11
DICPCG:  Solving for p, Initial residual = 0.00238631, Final residual = 9.83405e-07, No Iterations 409
time step continuity errors : sum local = 2.04259e-13, global = 1.56564e-16, cumulative = -3.34641e-11
ExecutionTime = 18.45 s  ClockTime = 19 s

Time = 0.18

Courant Number mean: 0.00140972 max: 0.0418761
smoothSolver:  Solving for Ux, Initial residual = 0.000888072, Final residual = 5.02153e-06, No Iterations 2
smoothSolver:  Solving for Uy, Initial residual = 0.00110494, Final residual = 2.12129e-06, No Iterations 2
DICPCG:  Solving for p, Initial residual = 0.0138497, Final residual = 0.000662024, No Iterations 81
time step continuity errors : sum local = 1.36733e-10, global = 4.29212e-15, cumulative = -3.34598e-11
DICPCG:  Solving for p, Initial residual = 0.00222048, Final residual = 9.94608e-07, No Iterations 366
time step continuity errors : sum local = 2.04834e-13, global = -3.19909e-15, cumulative = -3.3463e-11
ExecutionTime = 19.29 s  ClockTime = 19 s

Time = 0.19

Courant Number mean: 0.00140956 max: 0.0416278
smoothSolver:  Solving for Ux, Initial residual = 0.000833557, Final residual = 4.64543e-06, No Iterations 2
smoothSolver:  Solving for Uy, Initial residual = 0.00106978, Final residual = 2.02472e-06, No Iterations 2
DICPCG:  Solving for p, Initial residual = 0.0129373, Final residual = 0.000646149, No Iterations 80
time step continuity errors : sum local = 1.32345e-10, global = 4.01943e-15, cumulative = -3.3459e-11
DICPCG:  Solving for p, Initial residual = 0.00211368, Final residual = 9.86258e-07, No Iterations 403
time step continuity errors : sum local = 2.01416e-13, global = 9.51965e-17, cumulative = -3.34589e-11
ExecutionTime = 20.19 s  ClockTime = 20 s

Time = 0.2

Courant Number mean: 0.00140941 max: 0.0413719
smoothSolver:  Solving for Ux, Initial residual = 0.000785417, Final residual = 4.31471e-06, No Iterations 2
smoothSolver:  Solving for Uy, Initial residual = 0.00103788, Final residual = 1.9364e-06, No Iterations 2
DICPCG:  Solving for p, Initial residual = 0.0122341, Final residual = 0.000597247, No Iterations 79
time step continuity errors : sum local = 1.21318e-10, global = 3.0445e-15, cumulative = -3.34558e-11
DICPCG:  Solving for p, Initial residual = 0.00199811, Final residual = 9.95589e-07, No Iterations 406
time step continuity errors : sum local = 2.01622e-13, global = 2.91325e-16, cumulative = -3.34555e-11
ExecutionTime = 21.09 s  ClockTime = 21 s

Time = 0.21

Courant Number mean: 0.00140926 max: 0.0411107
smoothSolver:  Solving for Ux, Initial residual = 0.000742677, Final residual = 4.02221e-06, No Iterations 2
smoothSolver:  Solving for Uy, Initial residual = 0.00100871, Final residual = 1.85529e-06, No Iterations 2
DICPCG:  Solving for p, Initial residual = 0.0114395, Final residual = 0.000557195, No Iterations 79
time step continuity errors : sum local = 1.12279e-10, global = 2.99282e-15, cumulative = -3.34525e-11
DICPCG:  Solving for p, Initial residual = 0.00187061, Final residual = 9.99125e-07, No Iterations 366
time step continuity errors : sum local = 2.00763e-13, global = -2.91518e-15, cumulative = -3.34555e-11
ExecutionTime = 21.94 s  ClockTime = 22 s

Time = 0.22

Courant Number mean: 0.00140911 max: 0.0408456
smoothSolver:  Solving for Ux, Initial residual = 0.000704476, Final residual = 3.7623e-06, No Iterations 2
smoothSolver:  Solving for Uy, Initial residual = 0.000981851, Final residual = 1.78064e-06, No Iterations 2
DICPCG:  Solving for p, Initial residual = 0.0108871, Final residual = 0.000543666, No Iterations 78
time step continuity errors : sum local = 1.08724e-10, global = 2.58341e-15, cumulative = -3.34529e-11
DICPCG:  Solving for p, Initial residual = 0.00180121, Final residual = 9.62358e-07, No Iterations 403
time step continuity errors : sum local = 1.91926e-13, global = 1.0067e-16, cumulative = -3.34528e-11
ExecutionTime = 22.84 s  ClockTime = 23 s

Time = 0.23

Courant Number mean: 0.00140897 max: 0.0405783
smoothSolver:  Solving for Ux, Initial residual = 0.000670157, Final residual = 3.53014e-06, No Iterations 2
smoothSolver:  Solving for Uy, Initial residual = 0.000957018, Final residual = 1.71151e-06, No Iterations 2
DICPCG:  Solving for p, Initial residual = 0.0103058, Final residual = 0.000510727, No Iterations 73
time step continuity errors : sum local = 1.01389e-10, global = 1.439e-15, cumulative = -3.34513e-11
DICPCG:  Solving for p, Initial residual = 0.00172278, Final residual = 9.47046e-07, No Iterations 406
time step continuity errors : sum local = 1.87496e-13, global = 3.02382e-16, cumulative = -3.3451e-11
ExecutionTime = 23.74 s  ClockTime = 24 s

Time = 0.24

Courant Number mean: 0.00140884 max: 0.0403099
smoothSolver:  Solving for Ux, Initial residual = 0.00063911, Final residual = 3.32184e-06, No Iterations 2
smoothSolver:  Solving for Uy, Initial residual = 0.000933951, Final residual = 1.64751e-06, No Iterations 2
DICPCG:  Solving for p, Initial residual = 0.00971715, Final residual = 0.0004798, No Iterations 73
time step continuity errors : sum local = 9.4566e-11, global = 1.49918e-15, cumulative = -3.34495e-11
DICPCG:  Solving for p, Initial residual = 0.00163465, Final residual = 9.96717e-07, No Iterations 404
time step continuity errors : sum local = 1.9592e-13, global = 3.99473e-16, cumulative = -3.34491e-11
ExecutionTime = 24.65 s  ClockTime = 25 s

Time = 0.25

Courant Number mean: 0.0014087 max: 0.0400415
smoothSolver:  Solving for Ux, Initial residual = 0.000610926, Final residual = 3.13384e-06, No Iterations 2
smoothSolver:  Solving for Uy, Initial residual = 0.000912549, Final residual = 1.58825e-06, No Iterations 2
DICPCG:  Solving for p, Initial residual = 0.00922904, Final residual = 0.000455196, No Iterations 73
time step continuity errors : sum local = 8.90984e-11, global = 1.32721e-15, cumulative = -3.34478e-11
DICPCG:  Solving for p, Initial residual = 0.00156133, Final residual = 9.50897e-07, No Iterations 404
time step continuity errors : sum local = 1.85651e-13, global = 3.53222e-16, cumulative = -3.34474e-11
ExecutionTime = 25.56 s  ClockTime = 26 s

Time = 0.26

Courant Number mean: 0.00140857 max: 0.0397739
smoothSolver:  Solving for Ux, Initial residual = 0.000585202, Final residual = 2.96347e-06, No Iterations 2
smoothSolver:  Solving for Uy, Initial residual = 0.000892509, Final residual = 1.53307e-06, No Iterations 2
DICPCG:  Solving for p, Initial residual = 0.00884638, Final residual = 0.000430695, No Iterations 73
time step continuity errors : sum local = 8.37453e-11, global = 1.34281e-15, cumulative = -3.34461e-11
DICPCG:  Solving for p, Initial residual = 0.00150085, Final residual = 9.44461e-07, No Iterations 403
time step continuity errors : sum local = 1.83182e-13, global = 3.70468e-16, cumulative = -3.34457e-11
ExecutionTime = 26.44 s  ClockTime = 27 s

Time = 0.27

Courant Number mean: 0.00140845 max: 0.0395078
smoothSolver:  Solving for Ux, Initial residual = 0.000561607, Final residual = 2.80847e-06, No Iterations 2
smoothSolver:  Solving for Uy, Initial residual = 0.000873744, Final residual = 1.48138e-06, No Iterations 2
DICPCG:  Solving for p, Initial residual = 0.00857717, Final residual = 0.000426206, No Iterations 71
time step continuity errors : sum local = 8.23365e-11, global = 8.90135e-16, cumulative = -3.34448e-11
DICPCG:  Solving for p, Initial residual = 0.00145086, Final residual = 9.51789e-07, No Iterations 403
time step continuity errors : sum local = 1.83416e-13, global = 4.89059e-16, cumulative = -3.34444e-11
ExecutionTime = 27.31 s  ClockTime = 27 s

Time = 0.28

Courant Number mean: 0.00140832 max: 0.0392437
smoothSolver:  Solving for Ux, Initial residual = 0.000539848, Final residual = 2.66687e-06, No Iterations 2
smoothSolver:  Solving for Uy, Initial residual = 0.000856105, Final residual = 1.43287e-06, No Iterations 2
DICPCG:  Solving for p, Initial residual = 0.00822005, Final residual = 0.000409999, No Iterations 69
time step continuity errors : sum local = 7.8701e-11, global = 5.22172e-16, cumulative = -3.34438e-11
DICPCG:  Solving for p, Initial residual = 0.00140476, Final residual = 9.12968e-07, No Iterations 403
time step continuity errors : sum local = 1.74815e-13, global = 6.78723e-16, cumulative = -3.34432e-11
ExecutionTime = 28.18 s  ClockTime = 28 s

Time = 0.29

Courant Number mean: 0.0014082 max: 0.0389821
smoothSolver:  Solving for Ux, Initial residual = 0.000519742, Final residual = 2.53722e-06, No Iterations 2
smoothSolver:  Solving for Uy, Initial residual = 0.000839506, Final residual = 1.3878e-06, No Iterations 2
DICPCG:  Solving for p, Initial residual = 0.0078523, Final residual = 0.000384203, No Iterations 72
time step continuity errors : sum local = 7.32866e-11, global = 1.04807e-15, cumulative = -3.34421e-11
DICPCG:  Solving for p, Initial residual = 0.00133086, Final residual = 9.33234e-07, No Iterations 402
time step continuity errors : sum local = 1.77577e-13, global = 4.17034e-16, cumulative = -3.34417e-11
ExecutionTime = 29.05 s  ClockTime = 29 s

Time = 0.3

Courant Number mean: 0.00140808 max: 0.0387234
smoothSolver:  Solving for Ux, Initial residual = 0.000501113, Final residual = 2.41817e-06, No Iterations 2
smoothSolver:  Solving for Uy, Initial residual = 0.00082386, Final residual = 1.34555e-06, No Iterations 2
DICPCG:  Solving for p, Initial residual = 0.00755284, Final residual = 0.000374871, No Iterations 69
time step continuity errors : sum local = 7.10737e-11, global = 4.29251e-16, cumulative = -3.34413e-11
DICPCG:  Solving for p, Initial residual = 0.00129636, Final residual = 9.29563e-07, No Iterations 402
time step continuity errors : sum local = 1.75829e-13, global = 5.44913e-16, cumulative = -3.34407e-11
ExecutionTime = 29.93 s  ClockTime = 30 s

Time = 0.31

Courant Number mean: 0.00140797 max: 0.0384678
smoothSolver:  Solving for Ux, Initial residual = 0.000483764, Final residual = 2.30838e-06, No Iterations 2
smoothSolver:  Solving for Uy, Initial residual = 0.000809023, Final residual = 1.30568e-06, No Iterations 2
DICPCG:  Solving for p, Initial residual = 0.00730986, Final residual = 0.000362541, No Iterations 69
time step continuity errors : sum local = 6.8322e-11, global = 5.38813e-16, cumulative = -3.34402e-11
DICPCG:  Solving for p, Initial residual = 0.00126889, Final residual = 9.76495e-07, No Iterations 401
time step continuity errors : sum local = 1.83573e-13, global = 3.978e-16, cumulative = -3.34398e-11
ExecutionTime = 30.8 s  ClockTime = 31 s

Time = 0.32

Courant Number mean: 0.00140786 max: 0.0382156
smoothSolver:  Solving for Ux, Initial residual = 0.000467606, Final residual = 2.20694e-06, No Iterations 2
smoothSolver:  Solving for Uy, Initial residual = 0.000794965, Final residual = 1.26845e-06, No Iterations 2
DICPCG:  Solving for p, Initial residual = 0.00691948, Final residual = 0.00034264, No Iterations 71
time step continuity errors : sum local = 6.41887e-11, global = 7.77923e-16, cumulative = -3.3439e-11
DICPCG:  Solving for p, Initial residual = 0.00120037, Final residual = 9.61687e-07, No Iterations 400
time step continuity errors : sum local = 1.7974e-13, global = 6.68942e-17, cumulative = -3.34389e-11
ExecutionTime = 31.66 s  ClockTime = 32 s

Time = 0.33

Courant Number mean: 0.00140774 max: 0.0379669
smoothSolver:  Solving for Ux, Initial residual = 0.000452635, Final residual = 2.113e-06, No Iterations 2
smoothSolver:  Solving for Uy, Initial residual = 0.000781657, Final residual = 1.23344e-06, No Iterations 2
DICPCG:  Solving for p, Initial residual = 0.00668395, Final residual = 0.000333378, No Iterations 69
time step continuity errors : sum local = 6.20986e-11, global = 3.96394e-16, cumulative = -3.34385e-11
DICPCG:  Solving for p, Initial residual = 0.00117167, Final residual = 9.73975e-07, No Iterations 400
time step continuity errors : sum local = 1.81014e-13, global = 9.74224e-17, cumulative = -3.34384e-11
ExecutionTime = 32.53 s  ClockTime = 33 s

Time = 0.34

Courant Number mean: 0.00140764 max: 0.0377218
smoothSolver:  Solving for Ux, Initial residual = 0.00043869, Final residual = 2.02585e-06, No Iterations 2
smoothSolver:  Solving for Uy, Initial residual = 0.000768942, Final residual = 1.20039e-06, No Iterations 2
DICPCG:  Solving for p, Initial residual = 0.00646769, Final residual = 0.000321073, No Iterations 69
time step continuity errors : sum local = 5.94756e-11, global = 4.95211e-16, cumulative = -3.34379e-11
DICPCG:  Solving for p, Initial residual = 0.00113943, Final residual = 9.9495e-07, No Iterations 399
time step continuity errors : sum local = 1.839e-13, global = -1.76083e-16, cumulative = -3.34381e-11
ExecutionTime = 33.4 s  ClockTime = 33 s

Time = 0.35

Courant Number mean: 0.00140753 max: 0.0374804
smoothSolver:  Solving for Ux, Initial residual = 0.000425646, Final residual = 1.94468e-06, No Iterations 2
smoothSolver:  Solving for Uy, Initial residual = 0.000756859, Final residual = 1.16912e-06, No Iterations 2
DICPCG:  Solving for p, Initial residual = 0.00629709, Final residual = 0.000314779, No Iterations 68
time step continuity errors : sum local = 5.79933e-11, global = 2.60691e-16, cumulative = -3.34379e-11
DICPCG:  Solving for p, Initial residual = 0.00110412, Final residual = 9.87239e-07, No Iterations 399
time step continuity errors : sum local = 1.81482e-13, global = -1.31637e-16, cumulative = -3.3438e-11
ExecutionTime = 34.26 s  ClockTime = 34 s

Time = 0.36

Courant Number mean: 0.00140742 max: 0.0372428
smoothSolver:  Solving for Ux, Initial residual = 0.000413411, Final residual = 1.86895e-06, No Iterations 2
smoothSolver:  Solving for Uy, Initial residual = 0.000745297, Final residual = 1.13951e-06, No Iterations 2
DICPCG:  Solving for p, Initial residual = 0.00611254, Final residual = 0.000304572, No Iterations 68
time step continuity errors : sum local = 5.58147e-11, global = 3.18842e-16, cumulative = -3.34377e-11
DICPCG:  Solving for p, Initial residual = 0.00107407, Final residual = 9.91186e-07, No Iterations 398
time step continuity errors : sum local = 1.81255e-13, global = -3.12835e-16, cumulative = -3.3438e-11
ExecutionTime = 35.12 s  ClockTime = 35 s

Time = 0.37

Courant Number mean: 0.00140732 max: 0.037009
smoothSolver:  Solving for Ux, Initial residual = 0.000401992, Final residual = 1.79813e-06, No Iterations 2
smoothSolver:  Solving for Uy, Initial residual = 0.000734274, Final residual = 1.1114e-06, No Iterations 2
DICPCG:  Solving for p, Initial residual = 0.00597388, Final residual = 0.000297113, No Iterations 68
time step continuity errors : sum local = 5.41637e-11, global = 2.5747e-16, cumulative = -3.34377e-11
DICPCG:  Solving for p, Initial residual = 0.0010513, Final residual = 9.64217e-07, No Iterations 398
time step continuity errors : sum local = 1.75397e-13, global = -3.21908e-16, cumulative = -3.34381e-11
ExecutionTime = 35.99 s  ClockTime = 36 s

Time = 0.38

Courant Number mean: 0.00140722 max: 0.0367791
smoothSolver:  Solving for Ux, Initial residual = 0.000391299, Final residual = 1.73188e-06, No Iterations 2
smoothSolver:  Solving for Uy, Initial residual = 0.000723691, Final residual = 9.96547e-06, No Iterations 1
DICPCG:  Solving for p, Initial residual = 0.00615421, Final residual = 0.000299527, No Iterations 86
time step continuity errors : sum local = 5.43275e-11, global = 1.69121e-15, cumulative = -3.34364e-11
DICPCG:  Solving for p, Initial residual = 0.00222269, Final residual = 9.62279e-07, No Iterations 412
time step continuity errors : sum local = 1.74175e-13, global = -1.10081e-15, cumulative = -3.34375e-11
ExecutionTime = 36.92 s  ClockTime = 37 s

Time = 0.39

Courant Number mean: 0.00140712 max: 0.0365537
smoothSolver:  Solving for Ux, Initial residual = 0.000380982, Final residual = 1.66987e-06, No Iterations 2
smoothSolver:  Solving for Uy, Initial residual = 0.000713029, Final residual = 9.78825e-06, No Iterations 1
DICPCG:  Solving for p, Initial residual = 0.0059939, Final residual = 0.00029572, No Iterations 80
time step continuity errors : sum local = 5.33716e-11, global = 2.19288e-15, cumulative = -3.34353e-11
DICPCG:  Solving for p, Initial residual = 0.0021509, Final residual = 9.98265e-07, No Iterations 410
time step continuity errors : sum local = 1.79804e-13, global = -8.57311e-16, cumulative = -3.34361e-11
ExecutionTime = 37.82 s  ClockTime = 38 s

Time = 0.4

Courant Number mean: 0.00140702 max: 0.0363321
smoothSolver:  Solving for Ux, Initial residual = 0.000371467, Final residual = 1.6116e-06, No Iterations 2
smoothSolver:  Solving for Uy, Initial residual = 0.000703355, Final residual = 9.60333e-06, No Iterations 1
DICPCG:  Solving for p, Initial residual = 0.00581462, Final residual = 0.000288075, No Iterations 80
time step continuity errors : sum local = 5.17434e-11, global = 1.87059e-15, cumulative = -3.34343e-11
DICPCG:  Solving for p, Initial residual = 0.00210471, Final residual = 9.81688e-07, No Iterations 410
time step continuity errors : sum local = 1.75982e-13, global = -8.38534e-16, cumulative = -3.34351e-11
ExecutionTime = 38.72 s  ClockTime = 39 s

Time = 0.41

Courant Number mean: 0.00140692 max: 0.0361141
smoothSolver:  Solving for Ux, Initial residual = 0.000362457, Final residual = 1.55677e-06, No Iterations 2
smoothSolver:  Solving for Uy, Initial residual = 0.000694071, Final residual = 9.42609e-06, No Iterations 1
DICPCG:  Solving for p, Initial residual = 0.00567263, Final residual = 0.000280548, No Iterations 80
time step continuity errors : sum local = 5.01553e-11, global = 1.83741e-15, cumulative = -3.34333e-11
DICPCG:  Solving for p, Initial residual = 0.00205909, Final residual = 9.63071e-07, No Iterations 410
time step continuity errors : sum local = 1.7184e-13, global = -8.28159e-16, cumulative = -3.34341e-11
ExecutionTime = 39.62 s  ClockTime = 40 s

Time = 0.42

Courant Number mean: 0.00140683 max: 0.0358999
smoothSolver:  Solving for Ux, Initial residual = 0.000353903, Final residual = 1.50508e-06, No Iterations 2
smoothSolver:  Solving for Uy, Initial residual = 0.000685146, Final residual = 9.25545e-06, No Iterations 1
DICPCG:  Solving for p, Initial residual = 0.00551868, Final residual = 0.000273482, No Iterations 80
time step continuity errors : sum local = 4.8668e-11, global = 1.78765e-15, cumulative = -3.34323e-11
DICPCG:  Solving for p, Initial residual = 0.0020138, Final residual = 9.88495e-07, No Iterations 409
time step continuity errors : sum local = 1.75579e-13, global = -5.09517e-16, cumulative = -3.34328e-11
ExecutionTime = 40.52 s  ClockTime = 41 s

Time = 0.43

Courant Number mean: 0.00140673 max: 0.0356892
smoothSolver:  Solving for Ux, Initial residual = 0.000345774, Final residual = 1.45629e-06, No Iterations 2
smoothSolver:  Solving for Uy, Initial residual = 0.000676546, Final residual = 9.09227e-06, No Iterations 1
DICPCG:  Solving for p, Initial residual = 0.00544098, Final residual = 0.000267899, No Iterations 80
time step continuity errors : sum local = 4.74611e-11, global = 1.72611e-15, cumulative = -3.34311e-11
DICPCG:  Solving for p, Initial residual = 0.00197349, Final residual = 9.68538e-07, No Iterations 409
time step continuity errors : sum local = 1.71268e-13, global = -5.05089e-16, cumulative = -3.34316e-11
ExecutionTime = 41.42 s  ClockTime = 41 s

Time = 0.44

Courant Number mean: 0.00140664 max: 0.0354822
smoothSolver:  Solving for Ux, Initial residual = 0.000338037, Final residual = 1.41017e-06, No Iterations 2
smoothSolver:  Solving for Uy, Initial residual = 0.000668277, Final residual = 8.93644e-06, No Iterations 1
DICPCG:  Solving for p, Initial residual = 0.00533887, Final residual = 0.000266512, No Iterations 79
time step continuity errors : sum local = 4.70113e-11, global = 1.69104e-15, cumulative = -3.34299e-11
DICPCG:  Solving for p, Initial residual = 0.00194201, Final residual = 9.56537e-07, No Iterations 409
time step continuity errors : sum local = 1.6843e-13, global = -5.15137e-16, cumulative = -3.34304e-11
ExecutionTime = 42.32 s  ClockTime = 42 s

Time = 0.45

Courant Number mean: 0.00140655 max: 0.0352786
smoothSolver:  Solving for Ux, Initial residual = 0.00033066, Final residual = 1.36654e-06, No Iterations 2
smoothSolver:  Solving for Uy, Initial residual = 0.000660282, Final residual = 8.78624e-06, No Iterations 1
DICPCG:  Solving for p, Initial residual = 0.00524418, Final residual = 0.000257612, No Iterations 79
time step continuity errors : sum local = 4.52454e-11, global = 1.93495e-15, cumulative = -3.34285e-11
DICPCG:  Solving for p, Initial residual = 0.00190643, Final residual = 9.67124e-07, No Iterations 408
time step continuity errors : sum local = 1.69543e-13, global = -2.66941e-16, cumulative = -3.34287e-11
ExecutionTime = 43.22 s  ClockTime = 43 s

Time = 0.46

Courant Number mean: 0.00140646 max: 0.0350786
smoothSolver:  Solving for Ux, Initial residual = 0.000323629, Final residual = 1.32517e-06, No Iterations 2
smoothSolver:  Solving for Uy, Initial residual = 0.0006526, Final residual = 8.64175e-06, No Iterations 1
DICPCG:  Solving for p, Initial residual = 0.00508564, Final residual = 0.000250124, No Iterations 80
time step continuity errors : sum local = 4.37411e-11, global = 1.91384e-15, cumulative = -3.34268e-11
DICPCG:  Solving for p, Initial residual = 0.00185951, Final residual = 9.5081e-07, No Iterations 408
time step continuity errors : sum local = 1.65983e-13, global = -1.83904e-16, cumulative = -3.3427e-11
ExecutionTime = 44.11 s  ClockTime = 44 s

Time = 0.47

Courant Number mean: 0.00140637 max: 0.034882
smoothSolver:  Solving for Ux, Initial residual = 0.00031691, Final residual = 1.28592e-06, No Iterations 2
smoothSolver:  Solving for Uy, Initial residual = 0.000645145, Final residual = 8.50205e-06, No Iterations 1
DICPCG:  Solving for p, Initial residual = 0.00497709, Final residual = 0.000247834, No Iterations 79
time step continuity errors : sum local = 4.3162e-11, global = 1.55691e-15, cumulative = -3.34255e-11
DICPCG:  Solving for p, Initial residual = 0.00182767, Final residual = 9.82212e-07, No Iterations 407
time step continuity errors : sum local = 1.70765e-13, global = 1.20084e-16, cumulative = -3.34253e-11
ExecutionTime = 44.99 s  ClockTime = 45 s

Time = 0.48

Courant Number mean: 0.00140628 max: 0.0346887
smoothSolver:  Solving for Ux, Initial residual = 0.000310482, Final residual = 9.96114e-06, No Iterations 1
smoothSolver:  Solving for Uy, Initial residual = 0.000637939, Final residual = 8.3678e-06, No Iterations 1
DICPCG:  Solving for p, Initial residual = 0.00570313, Final residual = 0.00028291, No Iterations 101
time step continuity errors : sum local = 4.90645e-11, global = 7.0156e-16, cumulative = -3.34246e-11
DICPCG:  Solving for p, Initial residual = 0.00350109, Final residual = 8.78096e-07, No Iterations 409
time step continuity errors : sum local = 1.52e-13, global = -5.44737e-17, cumulative = -3.34247e-11
ExecutionTime = 45.93 s  ClockTime = 46 s

Time = 0.49

Courant Number mean: 0.0014062 max: 0.0345006
smoothSolver:  Solving for Ux, Initial residual = 0.000302447, Final residual = 9.73345e-06, No Iterations 1
smoothSolver:  Solving for Uy, Initial residual = 0.000625321, Final residual = 8.22269e-06, No Iterations 1
DICPCG:  Solving for p, Initial residual = 0.00567116, Final residual = 0.000281184, No Iterations 93
time step continuity errors : sum local = 4.8526e-11, global = -8.7025e-15, cumulative = -3.34334e-11
DICPCG:  Solving for p, Initial residual = 0.00339518, Final residual = 9.84695e-07, No Iterations 408
time step continuity errors : sum local = 1.69645e-13, global = 3.7563e-16, cumulative = -3.3433e-11
ExecutionTime = 46.83 s  ClockTime = 47 s

Time = 0.5

Courant Number mean: 0.00140611 max: 0.0343156
smoothSolver:  Solving for Ux, Initial residual = 0.000296777, Final residual = 9.50107e-06, No Iterations 1
smoothSolver:  Solving for Uy, Initial residual = 0.000618955, Final residual = 8.09745e-06, No Iterations 1
DICPCG:  Solving for p, Initial residual = 0.00561851, Final residual = 0.000280518, No Iterations 93
time step continuity errors : sum local = 4.82199e-11, global = -3.61961e-15, cumulative = -3.34366e-11
DICPCG:  Solving for p, Initial residual = 0.00335764, Final residual = 9.53842e-07, No Iterations 408
time step continuity errors : sum local = 1.63678e-13, global = 2.93349e-16, cumulative = -3.34363e-11
ExecutionTime = 47.74 s  ClockTime = 48 s

Time = 0.51

Courant Number mean: 0.00140603 max: 0.0341338
smoothSolver:  Solving for Ux, Initial residual = 0.000291277, Final residual = 9.27725e-06, No Iterations 1
smoothSolver:  Solving for Uy, Initial residual = 0.00061267, Final residual = 7.97689e-06, No Iterations 1
DICPCG:  Solving for p, Initial residual = 0.00542273, Final residual = 0.000269377, No Iterations 94
time step continuity errors : sum local = 4.61204e-11, global = -4.32327e-15, cumulative = -3.34407e-11
DICPCG:  Solving for p, Initial residual = 0.00330574, Final residual = 9.71623e-07, No Iterations 407
time step continuity errors : sum local = 1.66067e-13, global = 7.32732e-16, cumulative = -3.34399e-11
ExecutionTime = 48.66 s  ClockTime = 49 s

Time = 0.52

Courant Number mean: 0.00140595 max: 0.033955
smoothSolver:  Solving for Ux, Initial residual = 0.000285998, Final residual = 9.06233e-06, No Iterations 1
smoothSolver:  Solving for Uy, Initial residual = 0.000606575, Final residual = 7.86116e-06, No Iterations 1
DICPCG:  Solving for p, Initial residual = 0.00534311, Final residual = 0.000263617, No Iterations 94
time step continuity errors : sum local = 4.49568e-11, global = -4.57466e-15, cumulative = -3.34445e-11
DICPCG:  Solving for p, Initial residual = 0.00326079, Final residual = 9.58279e-07, No Iterations 407
time step continuity errors : sum local = 1.63142e-13, global = 7.04792e-16, cumulative = -3.34438e-11
ExecutionTime = 49.58 s  ClockTime = 50 s

Time = 0.53

Courant Number mean: 0.00140587 max: 0.0337792
smoothSolver:  Solving for Ux, Initial residual = 0.000280905, Final residual = 8.85555e-06, No Iterations 1
smoothSolver:  Solving for Uy, Initial residual = 0.000600642, Final residual = 7.74904e-06, No Iterations 1
DICPCG:  Solving for p, Initial residual = 0.00520415, Final residual = 0.000259904, No Iterations 94
time step continuity errors : sum local = 4.4152e-11, global = -4.56447e-15, cumulative = -3.34484e-11
DICPCG:  Solving for p, Initial residual = 0.00321183, Final residual = 9.79148e-07, No Iterations 406
time step continuity errors : sum local = 1.6606e-13, global = 1.16641e-15, cumulative = -3.34472e-11
ExecutionTime = 50.5 s  ClockTime = 51 s

Time = 0.54

Courant Number mean: 0.00140579 max: 0.0336063
smoothSolver:  Solving for Ux, Initial residual = 0.000276005, Final residual = 8.65722e-06, No Iterations 1
smoothSolver:  Solving for Uy, Initial residual = 0.000594864, Final residual = 7.63963e-06, No Iterations 1
DICPCG:  Solving for p, Initial residual = 0.00510423, Final residual = 0.000255057, No Iterations 94
time step continuity errors : sum local = 4.31651e-11, global = -4.63149e-15, cumulative = -3.34518e-11
DICPCG:  Solving for p, Initial residual = 0.00317203, Final residual = 9.61882e-07, No Iterations 406
time step continuity errors : sum local = 1.62519e-13, global = 1.18596e-15, cumulative = -3.34506e-11
ExecutionTime = 51.42 s  ClockTime = 51 s

Time = 0.55

Courant Number mean: 0.00140571 max: 0.0334362
smoothSolver:  Solving for Ux, Initial residual = 0.000271287, Final residual = 8.46699e-06, No Iterations 1
smoothSolver:  Solving for Uy, Initial residual = 0.000589219, Final residual = 7.53274e-06, No Iterations 1
DICPCG:  Solving for p, Initial residual = 0.00497599, Final residual = 0.000248359, No Iterations 95
time step continuity errors : sum local = 4.18763e-11, global = -4.28584e-15, cumulative = -3.34549e-11
DICPCG:  Solving for p, Initial residual = 0.00313652, Final residual = 9.82876e-07, No Iterations 405
time step continuity errors : sum local = 1.65461e-13, global = 1.62933e-15, cumulative = -3.34533e-11
ExecutionTime = 52.33 s  ClockTime = 52 s

Time = 0.56

Courant Number mean: 0.00140563 max: 0.0333523
smoothSolver:  Solving for Ux, Initial residual = 0.000266742, Final residual = 8.2841e-06, No Iterations 1
smoothSolver:  Solving for Uy, Initial residual = 0.000583753, Final residual = 7.42939e-06, No Iterations 1
DICPCG:  Solving for p, Initial residual = 0.00489817, Final residual = 0.000240117, No Iterations 96
time step continuity errors : sum local = 4.03393e-11, global = -5.35032e-15, cumulative = -3.34587e-11
DICPCG:  Solving for p, Initial residual = 0.00309363, Final residual = 9.67544e-07, No Iterations 405
time step continuity errors : sum local = 1.62285e-13, global = 1.66515e-15, cumulative = -3.3457e-11
ExecutionTime = 53.25 s  ClockTime = 53 s

Time = 0.57

Courant Number mean: 0.00140555 max: 0.0333057
smoothSolver:  Solving for Ux, Initial residual = 0.000262355, Final residual = 8.10825e-06, No Iterations 1
smoothSolver:  Solving for Uy, Initial residual = 0.000578436, Final residual = 7.32914e-06, No Iterations 1
DICPCG:  Solving for p, Initial residual = 0.00479669, Final residual = 0.000235801, No Iterations 96
time step continuity errors : sum local = 3.94716e-11, global = -6.67244e-15, cumulative = -3.34637e-11
DICPCG:  Solving for p, Initial residual = 0.00305475, Final residual = 9.98457e-07, No Iterations 404
time step continuity errors : sum local = 1.66874e-13, global = 1.99129e-15, cumulative = -3.34617e-11
ExecutionTime = 54.16 s  ClockTime = 54 s

Time = 0.58

Courant Number mean: 0.00140548 max: 0.0332584
smoothSolver:  Solving for Ux, Initial residual = 0.000258115, Final residual = 7.93911e-06, No Iterations 1
smoothSolver:  Solving for Uy, Initial residual = 0.000573242, Final residual = 7.2323e-06, No Iterations 1
DICPCG:  Solving for p, Initial residual = 0.00472617, Final residual = 0.000231919, No Iterations 96
time step continuity errors : sum local = 3.8685e-11, global = -4.41982e-15, cumulative = -3.34661e-11
DICPCG:  Solving for p, Initial residual = 0.00301906, Final residual = 9.78373e-07, No Iterations 404
time step continuity errors : sum local = 1.62945e-13, global = 1.94111e-15, cumulative = -3.34641e-11
ExecutionTime = 55.08 s  ClockTime = 55 s

Time = 0.59

Courant Number mean: 0.0014054 max: 0.0332103
smoothSolver:  Solving for Ux, Initial residual = 0.000254019, Final residual = 7.77639e-06, No Iterations 1
smoothSolver:  Solving for Uy, Initial residual = 0.000568196, Final residual = 7.13802e-06, No Iterations 1
DICPCG:  Solving for p, Initial residual = 0.00466046, Final residual = 0.000229745, No Iterations 96
time step continuity errors : sum local = 3.81898e-11, global = -5.57874e-15, cumulative = -3.34697e-11
DICPCG:  Solving for p, Initial residual = 0.00298395, Final residual = 9.6264e-07, No Iterations 404
time step continuity errors : sum local = 1.59776e-13, global = 1.91649e-15, cumulative = -3.34678e-11
ExecutionTime = 55.98 s  ClockTime = 56 s

Time = 0.6

Courant Number mean: 0.00140532 max: 0.0331616
smoothSolver:  Solving for Ux, Initial residual = 0.00025006, Final residual = 7.61973e-06, No Iterations 1
smoothSolver:  Solving for Uy, Initial residual = 0.000563264, Final residual = 7.04643e-06, No Iterations 1
DICPCG:  Solving for p, Initial residual = 0.00461548, Final residual = 0.000226106, No Iterations 96
time step continuity errors : sum local = 3.7458e-11, global = -5.5796e-15, cumulative = -3.34734e-11
DICPCG:  Solving for p, Initial residual = 0.00295258, Final residual = 9.97519e-07, No Iterations 403
time step continuity errors : sum local = 1.65011e-13, global = 2.18866e-15, cumulative = -3.34712e-11
ExecutionTime = 56.9 s  ClockTime = 57 s

Time = 0.61

Courant Number mean: 0.00140525 max: 0.0331122
smoothSolver:  Solving for Ux, Initial residual = 0.000246237, Final residual = 7.469e-06, No Iterations 1
smoothSolver:  Solving for Uy, Initial residual = 0.000558449, Final residual = 6.95685e-06, No Iterations 1
DICPCG:  Solving for p, Initial residual = 0.00459412, Final residual = 0.000227901, No Iterations 95
time step continuity errors : sum local = 3.76278e-11, global = -4.38142e-15, cumulative = -3.34756e-11
DICPCG:  Solving for p, Initial residual = 0.00292673, Final residual = 9.72828e-07, No Iterations 403
time step continuity errors : sum local = 1.60379e-13, global = 2.08825e-15, cumulative = -3.34735e-11
ExecutionTime = 57.8 s  ClockTime = 58 s

Time = 0.62

Courant Number mean: 0.00140518 max: 0.0330623
smoothSolver:  Solving for Ux, Initial residual = 0.000242533, Final residual = 7.3233e-06, No Iterations 1
smoothSolver:  Solving for Uy, Initial residual = 0.00055376, Final residual = 6.87008e-06, No Iterations 1
DICPCG:  Solving for p, Initial residual = 0.00448844, Final residual = 0.000223956, No Iterations 95
time step continuity errors : sum local = 3.68516e-11, global = -4.52305e-15, cumulative = -3.3478e-11
DICPCG:  Solving for p, Initial residual = 0.0028906, Final residual = 9.63679e-07, No Iterations 403
time step continuity errors : sum local = 1.58336e-13, global = 2.01689e-15, cumulative = -3.3476e-11
ExecutionTime = 58.71 s  ClockTime = 59 s

Time = 0.63

Courant Number mean: 0.0014051 max: 0.0330118
smoothSolver:  Solving for Ux, Initial residual = 0.000238944, Final residual = 7.18275e-06, No Iterations 1
smoothSolver:  Solving for Uy, Initial residual = 0.000549187, Final residual = 6.78555e-06, No Iterations 1
DICPCG:  Solving for p, Initial residual = 0.00440366, Final residual = 0.00021671, No Iterations 96
time step continuity errors : sum local = 3.55416e-11, global = -4.9735e-15, cumulative = -3.3481e-11
DICPCG:  Solving for p, Initial residual = 0.00285386, Final residual = 9.91096e-07, No Iterations 402
time step continuity errors : sum local = 1.62311e-13, global = 2.25306e-15, cumulative = -3.34787e-11
ExecutionTime = 59.61 s  ClockTime = 60 s

Time = 0.64

Courant Number mean: 0.00140503 max: 0.0329607
smoothSolver:  Solving for Ux, Initial residual = 0.000235472, Final residual = 7.04737e-06, No Iterations 1
smoothSolver:  Solving for Uy, Initial residual = 0.000544719, Final residual = 6.70291e-06, No Iterations 1
DICPCG:  Solving for p, Initial residual = 0.00438373, Final residual = 0.000216247, No Iterations 96
time step continuity errors : sum local = 3.53506e-11, global = -5.09024e-15, cumulative = -3.34838e-11
DICPCG:  Solving for p, Initial residual = 0.00282614, Final residual = 9.81952e-07, No Iterations 402
time step continuity errors : sum local = 1.60292e-13, global = 2.21375e-15, cumulative = -3.34816e-11
ExecutionTime = 60.52 s  ClockTime = 61 s

Time = 0.65

Courant Number mean: 0.00140496 max: 0.0329092
smoothSolver:  Solving for Ux, Initial residual = 0.000232106, Final residual = 6.91646e-06, No Iterations 1
smoothSolver:  Solving for Uy, Initial residual = 0.00054035, Final residual = 6.62259e-06, No Iterations 1
DICPCG:  Solving for p, Initial residual = 0.00428358, Final residual = 0.000210385, No Iterations 96
time step continuity errors : sum local = 3.42824e-11, global = -5.09933e-15, cumulative = -3.34867e-11
DICPCG:  Solving for p, Initial residual = 0.00279306, Final residual = 9.91021e-07, No Iterations 401
time step continuity errors : sum local = 1.61262e-13, global = 2.28104e-15, cumulative = -3.34844e-11
ExecutionTime = 61.41 s  ClockTime = 61 s

Time = 0.66

Courant Number mean: 0.00140489 max: 0.0328572
smoothSolver:  Solving for Ux, Initial residual = 0.000228843, Final residual = 6.79021e-06, No Iterations 1
smoothSolver:  Solving for Uy, Initial residual = 0.000536094, Final residual = 6.54379e-06, No Iterations 1
DICPCG:  Solving for p, Initial residual = 0.00426571, Final residual = 0.000209039, No Iterations 96
time step continuity errors : sum local = 3.39582e-11, global = -5.23508e-15, cumulative = -3.34896e-11
DICPCG:  Solving for p, Initial residual = 0.00276486, Final residual = 9.69568e-07, No Iterations 401
time step continuity errors : sum local = 1.57294e-13, global = 2.2297e-15, cumulative = -3.34874e-11
ExecutionTime = 62.33 s  ClockTime = 62 s

Time = 0.67

Courant Number mean: 0.00140482 max: 0.0328047
smoothSolver:  Solving for Ux, Initial residual = 0.000225674, Final residual = 6.66795e-06, No Iterations 1
smoothSolver:  Solving for Uy, Initial residual = 0.000531934, Final residual = 6.46722e-06, No Iterations 1
DICPCG:  Solving for p, Initial residual = 0.00419271, Final residual = 0.000206831, No Iterations 96
time step continuity errors : sum local = 3.3495e-11, global = -4.4828e-15, cumulative = -3.34919e-11
DICPCG:  Solving for p, Initial residual = 0.00274626, Final residual = 9.66298e-07, No Iterations 401
time step continuity errors : sum local = 1.5626e-13, global = 2.25451e-15, cumulative = -3.34896e-11
ExecutionTime = 63.23 s  ClockTime = 63 s

Time = 0.68

Courant Number mean: 0.00140475 max: 0.0327519
smoothSolver:  Solving for Ux, Initial residual = 0.000222599, Final residual = 6.54984e-06, No Iterations 1
smoothSolver:  Solving for Uy, Initial residual = 0.000527859, Final residual = 6.39298e-06, No Iterations 1
DICPCG:  Solving for p, Initial residual = 0.00413911, Final residual = 0.000204195, No Iterations 96
time step continuity errors : sum local = 3.29647e-11, global = -4.73546e-15, cumulative = -3.34944e-11
DICPCG:  Solving for p, Initial residual = 0.00271272, Final residual = 9.94204e-07, No Iterations 400
time step continuity errors : sum local = 1.60285e-13, global = 2.22641e-15, cumulative = -3.34922e-11
ExecutionTime = 64.13 s  ClockTime = 64 s

Time = 0.69

Courant Number mean: 0.00140468 max: 0.0326987
smoothSolver:  Solving for Ux, Initial residual = 0.000219612, Final residual = 6.43547e-06, No Iterations 1
smoothSolver:  Solving for Uy, Initial residual = 0.000523879, Final residual = 6.32038e-06, No Iterations 1
DICPCG:  Solving for p, Initial residual = 0.00413436, Final residual = 0.000203893, No Iterations 96
time step continuity errors : sum local = 3.2811e-11, global = -4.38853e-15, cumulative = -3.34965e-11
DICPCG:  Solving for p, Initial residual = 0.00269072, Final residual = 9.91798e-07, No Iterations 399
time step continuity errors : sum local = 1.59362e-13, global = 2.26299e-15, cumulative = -3.34943e-11
ExecutionTime = 65.02 s  ClockTime = 65 s

Time = 0.7

Courant Number mean: 0.00140461 max: 0.0326452
smoothSolver:  Solving for Ux, Initial residual = 0.000216711, Final residual = 6.3249e-06, No Iterations 1
smoothSolver:  Solving for Uy, Initial residual = 0.000519969, Final residual = 6.24918e-06, No Iterations 1
DICPCG:  Solving for p, Initial residual = 0.00398807, Final residual = 0.000199005, No Iterations 96
time step continuity errors : sum local = 3.19218e-11, global = -5.13872e-15, cumulative = -3.34994e-11
DICPCG:  Solving for p, Initial residual = 0.00265809, Final residual = 9.85435e-07, No Iterations 399
time step continuity errors : sum local = 1.57853e-13, global = 2.20781e-15, cumulative = -3.34972e-11
ExecutionTime = 65.92 s  ClockTime = 66 s

Time = 0.71

Courant Number mean: 0.00140454 max: 0.0325913
smoothSolver:  Solving for Ux, Initial residual = 0.00021389, Final residual = 6.21771e-06, No Iterations 1
smoothSolver:  Solving for Uy, Initial residual = 0.000516142, Final residual = 6.17966e-06, No Iterations 1
DICPCG:  Solving for p, Initial residual = 0.00395991, Final residual = 0.000192069, No Iterations 97
time step continuity errors : sum local = 3.07152e-11, global = -5.49861e-15, cumulative = -3.35027e-11
DICPCG:  Solving for p, Initial residual = 0.00263464, Final residual = 9.7792e-07, No Iterations 399
time step continuity errors : sum local = 1.56173e-13, global = 2.14227e-15, cumulative = -3.35006e-11
ExecutionTime = 66.82 s  ClockTime = 67 s

Time = 0.72

Courant Number mean: 0.00140448 max: 0.0325371
smoothSolver:  Solving for Ux, Initial residual = 0.00021115, Final residual = 6.11382e-06, No Iterations 1
smoothSolver:  Solving for Uy, Initial residual = 0.000512406, Final residual = 6.11203e-06, No Iterations 1
DICPCG:  Solving for p, Initial residual = 0.00395838, Final residual = 0.000195887, No Iterations 96
time step continuity errors : sum local = 3.12282e-11, global = -4.3879e-15, cumulative = -3.3505e-11
DICPCG:  Solving for p, Initial residual = 0.00261806, Final residual = 9.97878e-07, No Iterations 398
time step continuity errors : sum local = 1.58852e-13, global = 2.21604e-15, cumulative = -3.35027e-11
ExecutionTime = 67.73 s  ClockTime = 68 s

Time = 0.73

Courant Number mean: 0.00140441 max: 0.0324827
smoothSolver:  Solving for Ux, Initial residual = 0.000208479, Final residual = 6.01304e-06, No Iterations 1
smoothSolver:  Solving for Uy, Initial residual = 0.000508755, Final residual = 6.0467e-06, No Iterations 1
DICPCG:  Solving for p, Initial residual = 0.00386343, Final residual = 0.000188549, No Iterations 97
time step continuity errors : sum local = 2.99655e-11, global = -4.95305e-15, cumulative = -3.35077e-11
DICPCG:  Solving for p, Initial residual = 0.0025831, Final residual = 9.74068e-07, No Iterations 398
time step continuity errors : sum local = 1.54599e-13, global = 2.14232e-15, cumulative = -3.35056e-11
ExecutionTime = 68.63 s  ClockTime = 69 s

Time = 0.74

Courant Number mean: 0.00140434 max: 0.0324281
smoothSolver:  Solving for Ux, Initial residual = 0.000205884, Final residual = 5.91526e-06, No Iterations 1
smoothSolver:  Solving for Uy, Initial residual = 0.000505163, Final residual = 5.98127e-06, No Iterations 1
DICPCG:  Solving for p, Initial residual = 0.00383021, Final residual = 0.000191267, No Iterations 96
time step continuity errors : sum local = 3.03053e-11, global = -4.72628e-15, cumulative = -3.35103e-11
DICPCG:  Solving for p, Initial residual = 0.00256665, Final residual = 9.81488e-07, No Iterations 397
time step continuity errors : sum local = 1.55296e-13, global = 2.25744e-15, cumulative = -3.3508e-11
ExecutionTime = 69.52 s  ClockTime = 70 s

Time = 0.75

Courant Number mean: 0.00140428 max: 0.0323732
smoothSolver:  Solving for Ux, Initial residual = 0.000203355, Final residual = 5.8205e-06, No Iterations 1
smoothSolver:  Solving for Uy, Initial residual = 0.000501642, Final residual = 5.91796e-06, No Iterations 1
DICPCG:  Solving for p, Initial residual = 0.00376766, Final residual = 0.00018334, No Iterations 97
time step continuity errors : sum local = 2.8961e-11, global = -4.88506e-15, cumulative = -3.35129e-11
DICPCG:  Solving for p, Initial residual = 0.00253985, Final residual = 9.42842e-07, No Iterations 398
time step continuity errors : sum local = 1.48734e-13, global = 2.05737e-15, cumulative = -3.35108e-11
ExecutionTime = 70.42 s  ClockTime = 70 s

Time = 0.76

Courant Number mean: 0.00140421 max: 0.0323181
smoothSolver:  Solving for Ux, Initial residual = 0.000200893, Final residual = 5.72846e-06, No Iterations 1
smoothSolver:  Solving for Uy, Initial residual = 0.000498194, Final residual = 5.85592e-06, No Iterations 1
DICPCG:  Solving for p, Initial residual = 0.00371202, Final residual = 0.000181549, No Iterations 97
time step continuity errors : sum local = 2.85926e-11, global = -5.0162e-15, cumulative = -3.35159e-11
DICPCG:  Solving for p, Initial residual = 0.00251804, Final residual = 9.92491e-07, No Iterations 397
time step continuity errors : sum local = 1.56101e-13, global = 2.17251e-15, cumulative = -3.35137e-11
ExecutionTime = 71.32 s  ClockTime = 71 s

Time = 0.77

Courant Number mean: 0.00140415 max: 0.0322628
smoothSolver:  Solving for Ux, Initial residual = 0.000198493, Final residual = 5.63916e-06, No Iterations 1
smoothSolver:  Solving for Uy, Initial residual = 0.000494805, Final residual = 5.79528e-06, No Iterations 1
DICPCG:  Solving for p, Initial residual = 0.00367466, Final residual = 0.000179378, No Iterations 97
time step continuity errors : sum local = 2.81672e-11, global = -4.94187e-15, cumulative = -3.35186e-11
DICPCG:  Solving for p, Initial residual = 0.00249567, Final residual = 9.61836e-07, No Iterations 397
time step continuity errors : sum local = 1.50834e-13, global = 2.11733e-15, cumulative = -3.35165e-11
ExecutionTime = 72.22 s  ClockTime = 72 s

Time = 0.78

Courant Number mean: 0.00140409 max: 0.0322074
smoothSolver:  Solving for Ux, Initial residual = 0.000196157, Final residual = 5.55243e-06, No Iterations 1
smoothSolver:  Solving for Uy, Initial residual = 0.000491495, Final residual = 5.7357e-06, No Iterations 1
DICPCG:  Solving for p, Initial residual = 0.00366765, Final residual = 0.0001783, No Iterations 97
time step continuity errors : sum local = 2.79165e-11, global = -4.95785e-15, cumulative = -3.35215e-11
DICPCG:  Solving for p, Initial residual = 0.00247439, Final residual = 9.91641e-07, No Iterations 395
time step continuity errors : sum local = 1.55061e-13, global = 2.46928e-15, cumulative = -3.3519e-11
ExecutionTime = 73.12 s  ClockTime = 73 s

Time = 0.79

Courant Number mean: 0.00140402 max: 0.0321519
smoothSolver:  Solving for Ux, Initial residual = 0.000193882, Final residual = 5.46819e-06, No Iterations 1
smoothSolver:  Solving for Uy, Initial residual = 0.000488254, Final residual = 5.67711e-06, No Iterations 1
DICPCG:  Solving for p, Initial residual = 0.00362434, Final residual = 0.000176387, No Iterations 97
time step continuity errors : sum local = 2.75368e-11, global = -4.86525e-15, cumulative = -3.35239e-11
DICPCG:  Solving for p, Initial residual = 0.0024552, Final residual = 9.93326e-07, No Iterations 394
time step continuity errors : sum local = 1.54871e-13, global = 2.60813e-15, cumulative = -3.35213e-11
ExecutionTime = 74.01 s  ClockTime = 74 s

Time = 0.8

Courant Number mean: 0.00140396 max: 0.0320962
smoothSolver:  Solving for Ux, Initial residual = 0.000191656, Final residual = 5.38627e-06, No Iterations 1
smoothSolver:  Solving for Uy, Initial residual = 0.000485066, Final residual = 5.6203e-06, No Iterations 1
DICPCG:  Solving for p, Initial residual = 0.00360135, Final residual = 0.000176134, No Iterations 97
time step continuity errors : sum local = 2.74194e-11, global = -4.78194e-15, cumulative = -3.3526e-11
DICPCG:  Solving for p, Initial residual = 0.00243491, Final residual = 9.97766e-07, No Iterations 393
time step continuity errors : sum local = 1.55132e-13, global = 2.51644e-15, cumulative = -3.35235e-11
ExecutionTime = 74.9 s  ClockTime = 75 s

Time = 0.81

Courant Number mean: 0.0014039 max: 0.0320404
smoothSolver:  Solving for Ux, Initial residual = 0.000189485, Final residual = 5.30672e-06, No Iterations 1
smoothSolver:  Solving for Uy, Initial residual = 0.000481935, Final residual = 5.56401e-06, No Iterations 1
DICPCG:  Solving for p, Initial residual = 0.00358432, Final residual = 0.000179059, No Iterations 96
time step continuity errors : sum local = 2.77965e-11, global = -4.36104e-15, cumulative = -3.35279e-11
DICPCG:  Solving for p, Initial residual = 0.0024222, Final residual = 9.78578e-07, No Iterations 394
time step continuity errors : sum local = 1.51715e-13, global = 2.52838e-15, cumulative = -3.35254e-11
ExecutionTime = 75.79 s  ClockTime = 76 s

Time = 0.82

Courant Number mean: 0.00140383 max: 0.0319845
smoothSolver:  Solving for Ux, Initial residual = 0.000187366, Final residual = 5.2293e-06, No Iterations 1
smoothSolver:  Solving for Uy, Initial residual = 0.000478863, Final residual = 5.50958e-06, No Iterations 1
DICPCG:  Solving for p, Initial residual = 0.00349992, Final residual = 0.000170495, No Iterations 97
time step continuity errors : sum local = 2.63916e-11, global = -4.51847e-15, cumulative = -3.35299e-11
DICPCG:  Solving for p, Initial residual = 0.00239387, Final residual = 9.76616e-07, No Iterations 393
time step continuity errors : sum local = 1.50979e-13, global = 2.43829e-15, cumulative = -3.35274e-11
ExecutionTime = 76.67 s  ClockTime = 77 s

Time = 0.83

Courant Number mean: 0.00140377 max: 0.0319285
smoothSolver:  Solving for Ux, Initial residual = 0.000185301, Final residual = 5.15412e-06, No Iterations 1
smoothSolver:  Solving for Uy, Initial residual = 0.000475852, Final residual = 5.45534e-06, No Iterations 1
DICPCG:  Solving for p, Initial residual = 0.00347827, Final residual = 0.000172844, No Iterations 96
time step continuity errors : sum local = 2.66781e-11, global = -4.31331e-15, cumulative = -3.35318e-11
DICPCG:  Solving for p, Initial residual = 0.00237604, Final residual = 9.95318e-07, No Iterations 392
time step continuity errors : sum local = 1.53422e-13, global = 2.3051e-15, cumulative = -3.35294e-11
ExecutionTime = 77.56 s  ClockTime = 78 s

Time = 0.84

Courant Number mean: 0.00140371 max: 0.0318725
smoothSolver:  Solving for Ux, Initial residual = 0.000183283, Final residual = 5.08098e-06, No Iterations 1
smoothSolver:  Solving for Uy, Initial residual = 0.000472876, Final residual = 5.40111e-06, No Iterations 1
DICPCG:  Solving for p, Initial residual = 0.00344688, Final residual = 0.000172301, No Iterations 96
time step continuity errors : sum local = 2.65188e-11, global = -4.0951e-15, cumulative = -3.35335e-11
DICPCG:  Solving for p, Initial residual = 0.00235681, Final residual = 9.81669e-07, No Iterations 392
time step continuity errors : sum local = 1.50897e-13, global = 2.25277e-15, cumulative = -3.35313e-11
ExecutionTime = 78.44 s  ClockTime = 79 s

Time = 0.85

Courant Number mean: 0.00140365 max: 0.0318165
smoothSolver:  Solving for Ux, Initial residual = 0.000181312, Final residual = 5.00968e-06, No Iterations 1
smoothSolver:  Solving for Uy, Initial residual = 0.00046996, Final residual = 5.34872e-06, No Iterations 1
DICPCG:  Solving for p, Initial residual = 0.00340711, Final residual = 0.000166178, No Iterations 97
time step continuity errors : sum local = 2.55057e-11, global = -4.34578e-15, cumulative = -3.35356e-11
DICPCG:  Solving for p, Initial residual = 0.0023393, Final residual = 9.78976e-07, No Iterations 392
time step continuity errors : sum local = 1.50071e-13, global = 2.26374e-15, cumulative = -3.35334e-11
ExecutionTime = 79.33 s  ClockTime = 79 s

Time = 0.86

Courant Number mean: 0.00140359 max: 0.0317604
smoothSolver:  Solving for Ux, Initial residual = 0.000179383, Final residual = 4.94007e-06, No Iterations 1
smoothSolver:  Solving for Uy, Initial residual = 0.000467102, Final residual = 5.29813e-06, No Iterations 1
DICPCG:  Solving for p, Initial residual = 0.00338184, Final residual = 0.000165508, No Iterations 97
time step continuity errors : sum local = 2.53335e-11, global = -4.33898e-15, cumulative = -3.35377e-11
DICPCG:  Solving for p, Initial residual = 0.00232154, Final residual = 9.56677e-07, No Iterations 392
time step continuity errors : sum local = 1.46253e-13, global = 2.18864e-15, cumulative = -3.35355e-11
ExecutionTime = 80.21 s  ClockTime = 80 s

Time = 0.87

Courant Number mean: 0.00140353 max: 0.0317043
smoothSolver:  Solving for Ux, Initial residual = 0.000177499, Final residual = 4.87245e-06, No Iterations 1
smoothSolver:  Solving for Uy, Initial residual = 0.000464281, Final residual = 5.2484e-06, No Iterations 1
DICPCG:  Solving for p, Initial residual = 0.00333137, Final residual = 0.000163468, No Iterations 97
time step continuity errors : sum local = 2.49529e-11, global = -4.59889e-15, cumulative = -3.35401e-11
DICPCG:  Solving for p, Initial residual = 0.00230435, Final residual = 9.80146e-07, No Iterations 391
time step continuity errors : sum local = 1.49433e-13, global = 2.09996e-15, cumulative = -3.3538e-11
ExecutionTime = 81.1 s  ClockTime = 81 s

Time = 0.88

Courant Number mean: 0.00140347 max: 0.0316482
smoothSolver:  Solving for Ux, Initial residual = 0.000175656, Final residual = 4.80659e-06, No Iterations 1
smoothSolver:  Solving for Uy, Initial residual = 0.000461529, Final residual = 5.19948e-06, No Iterations 1
DICPCG:  Solving for p, Initial residual = 0.00331648, Final residual = 0.000161548, No Iterations 97
time step continuity errors : sum local = 2.45935e-11, global = -4.22498e-15, cumulative = -3.35422e-11
DICPCG:  Solving for p, Initial residual = 0.00228998, Final residual = 9.8623e-07, No Iterations 391
time step continuity errors : sum local = 1.49957e-13, global = 2.03979e-15, cumulative = -3.35402e-11
ExecutionTime = 81.99 s  ClockTime = 82 s

Time = 0.89

Courant Number mean: 0.00140341 max: 0.0315921
smoothSolver:  Solving for Ux, Initial residual = 0.000173853, Final residual = 4.74225e-06, No Iterations 1
smoothSolver:  Solving for Uy, Initial residual = 0.000458811, Final residual = 5.15198e-06, No Iterations 1
DICPCG:  Solving for p, Initial residual = 0.00330628, Final residual = 0.00016272, No Iterations 97
time step continuity errors : sum local = 2.47048e-11, global = -4.38554e-15, cumulative = -3.35446e-11
DICPCG:  Solving for p, Initial residual = 0.0022784, Final residual = 9.58368e-07, No Iterations 391
time step continuity errors : sum local = 1.45322e-13, global = 2.05341e-15, cumulative = -3.35425e-11
ExecutionTime = 82.88 s  ClockTime = 83 s

Time = 0.9

Courant Number mean: 0.00140336 max: 0.031536
smoothSolver:  Solving for Ux, Initial residual = 0.000172087, Final residual = 4.67942e-06, No Iterations 1
smoothSolver:  Solving for Uy, Initial residual = 0.000456145, Final residual = 5.10598e-06, No Iterations 1
DICPCG:  Solving for p, Initial residual = 0.003242, Final residual = 0.000161124, No Iterations 97
time step continuity errors : sum local = 2.43959e-11, global = -4.28138e-15, cumulative = -3.35468e-11
DICPCG:  Solving for p, Initial residual = 0.00225689, Final residual = 9.29485e-07, No Iterations 391
time step continuity errors : sum local = 1.4056e-13, global = 1.96537e-15, cumulative = -3.35449e-11
ExecutionTime = 83.77 s  ClockTime = 84 s

Time = 0.91

Courant Number mean: 0.0014033 max: 0.0314799
smoothSolver:  Solving for Ux, Initial residual = 0.000170362, Final residual = 4.61844e-06, No Iterations 1
smoothSolver:  Solving for Uy, Initial residual = 0.000453512, Final residual = 5.05959e-06, No Iterations 1
DICPCG:  Solving for p, Initial residual = 0.00319147, Final residual = 0.000157286, No Iterations 97
time step continuity errors : sum local = 2.37508e-11, global = -4.42474e-15, cumulative = -3.35493e-11
DICPCG:  Solving for p, Initial residual = 0.00223629, Final residual = 9.39639e-07, No Iterations 391
time step continuity errors : sum local = 1.41719e-13, global = 1.9344e-15, cumulative = -3.35473e-11
ExecutionTime = 84.65 s  ClockTime = 85 s

Time = 0.92

Courant Number mean: 0.00140324 max: 0.0314239
smoothSolver:  Solving for Ux, Initial residual = 0.000168671, Final residual = 4.55881e-06, No Iterations 1
smoothSolver:  Solving for Uy, Initial residual = 0.000450909, Final residual = 5.01442e-06, No Iterations 1
DICPCG:  Solving for p, Initial residual = 0.00319679, Final residual = 0.000158417, No Iterations 97
time step continuity errors : sum local = 2.38586e-11, global = -4.07574e-15, cumulative = -3.35514e-11
DICPCG:  Solving for p, Initial residual = 0.00222428, Final residual = 9.22815e-07, No Iterations 391
time step continuity errors : sum local = 1.38817e-13, global = 1.90135e-15, cumulative = -3.35495e-11
ExecutionTime = 85.54 s  ClockTime = 86 s

Time = 0.93

Courant Number mean: 0.00140318 max: 0.031368
smoothSolver:  Solving for Ux, Initial residual = 0.000167017, Final residual = 4.50058e-06, No Iterations 1
smoothSolver:  Solving for Uy, Initial residual = 0.000448359, Final residual = 4.97019e-06, No Iterations 1
DICPCG:  Solving for p, Initial residual = 0.00318616, Final residual = 0.000157217, No Iterations 97
time step continuity errors : sum local = 2.36161e-11, global = -4.23539e-15, cumulative = -3.35538e-11
DICPCG:  Solving for p, Initial residual = 0.00220951, Final residual = 9.15458e-07, No Iterations 391
time step continuity errors : sum local = 1.37351e-13, global = 1.89217e-15, cumulative = -3.35519e-11
ExecutionTime = 86.43 s  ClockTime = 87 s

Time = 0.94

Courant Number mean: 0.00140313 max: 0.031312
smoothSolver:  Solving for Ux, Initial residual = 0.000165393, Final residual = 4.44376e-06, No Iterations 1
smoothSolver:  Solving for Uy, Initial residual = 0.000445839, Final residual = 4.9268e-06, No Iterations 1
DICPCG:  Solving for p, Initial residual = 0.00315917, Final residual = 0.000154443, No Iterations 97
time step continuity errors : sum local = 2.31402e-11, global = -4.16182e-15, cumulative = -3.3556e-11
DICPCG:  Solving for p, Initial residual = 0.00219322, Final residual = 9.96234e-07, No Iterations 390
time step continuity errors : sum local = 1.49096e-13, global = 1.8435e-15, cumulative = -3.35542e-11
ExecutionTime = 87.31 s  ClockTime = 87 s

Time = 0.95

Courant Number mean: 0.00140307 max: 0.0312562
smoothSolver:  Solving for Ux, Initial residual = 0.000163805, Final residual = 4.38827e-06, No Iterations 1
smoothSolver:  Solving for Uy, Initial residual = 0.000443366, Final residual = 4.88412e-06, No Iterations 1
DICPCG:  Solving for p, Initial residual = 0.00317225, Final residual = 0.000154031, No Iterations 97
time step continuity errors : sum local = 2.30191e-11, global = -4.10744e-15, cumulative = -3.35583e-11
DICPCG:  Solving for p, Initial residual = 0.00218217, Final residual = 9.71614e-07, No Iterations 390
time step continuity errors : sum local = 1.45026e-13, global = 1.7736e-15, cumulative = -3.35565e-11
ExecutionTime = 88.2 s  ClockTime = 88 s

Time = 0.96

Courant Number mean: 0.00140301 max: 0.0312004
smoothSolver:  Solving for Ux, Initial residual = 0.000162248, Final residual = 4.33405e-06, No Iterations 1
smoothSolver:  Solving for Uy, Initial residual = 0.000440937, Final residual = 4.84193e-06, No Iterations 1
DICPCG:  Solving for p, Initial residual = 0.00313007, Final residual = 0.000155925, No Iterations 96
time step continuity errors : sum local = 2.32414e-11, global = -3.80106e-15, cumulative = -3.35603e-11
DICPCG:  Solving for p, Initial residual = 0.00216545, Final residual = 9.64096e-07, No Iterations 390
time step continuity errors : sum local = 1.43535e-13, global = 1.72927e-15, cumulative = -3.35586e-11
ExecutionTime = 89.08 s  ClockTime = 89 s

Time = 0.97

Courant Number mean: 0.00140296 max: 0.0311448
smoothSolver:  Solving for Ux, Initial residual = 0.000160722, Final residual = 4.2811e-06, No Iterations 1
smoothSolver:  Solving for Uy, Initial residual = 0.000438539, Final residual = 4.80026e-06, No Iterations 1
DICPCG:  Solving for p, Initial residual = 0.00307891, Final residual = 0.000150848, No Iterations 97
time step continuity errors : sum local = 2.24267e-11, global = -3.90493e-15, cumulative = -3.35625e-11
DICPCG:  Solving for p, Initial residual = 0.00215263, Final residual = 9.49051e-07, No Iterations 390
time step continuity errors : sum local = 1.40929e-13, global = 1.71759e-15, cumulative = -3.35608e-11
ExecutionTime = 89.97 s  ClockTime = 90 s

Time = 0.98

Courant Number mean: 0.0014029 max: 0.0310892
smoothSolver:  Solving for Ux, Initial residual = 0.000159229, Final residual = 4.22944e-06, No Iterations 1
smoothSolver:  Solving for Uy, Initial residual = 0.000436187, Final residual = 4.75962e-06, No Iterations 1
DICPCG:  Solving for p, Initial residual = 0.00309102, Final residual = 0.000153989, No Iterations 96
time step continuity errors : sum local = 2.2834e-11, global = -3.69637e-15, cumulative = -3.35645e-11
DICPCG:  Solving for p, Initial residual = 0.00214449, Final residual = 9.43316e-07, No Iterations 390
time step continuity errors : sum local = 1.39708e-13, global = 1.66303e-15, cumulative = -3.35628e-11
ExecutionTime = 90.85 s  ClockTime = 91 s

Time = 0.99

Courant Number mean: 0.00140285 max: 0.0310337
smoothSolver:  Solving for Ux, Initial residual = 0.000157763, Final residual = 4.17895e-06, No Iterations 1
smoothSolver:  Solving for Uy, Initial residual = 0.000433867, Final residual = 4.71946e-06, No Iterations 1
DICPCG:  Solving for p, Initial residual = 0.00305873, Final residual = 0.00015241, No Iterations 96
time step continuity errors : sum local = 2.25403e-11, global = -3.56361e-15, cumulative = -3.35664e-11
DICPCG:  Solving for p, Initial residual = 0.00212927, Final residual = 9.24913e-07, No Iterations 390
time step continuity errors : sum local = 1.36621e-13, global = 1.6039e-15, cumulative = -3.35648e-11
ExecutionTime = 91.73 s  ClockTime = 92 s

Time = 1

Courant Number mean: 0.00140279 max: 0.0309783
smoothSolver:  Solving for Ux, Initial residual = 0.000156325, Final residual = 4.12952e-06, No Iterations 1
smoothSolver:  Solving for Uy, Initial residual = 0.000431576, Final residual = 4.67984e-06, No Iterations 1
DICPCG:  Solving for p, Initial residual = 0.00298799, Final residual = 0.000146411, No Iterations 97
time step continuity errors : sum local = 2.15971e-11, global = -3.84986e-15, cumulative = -3.35686e-11
DICPCG:  Solving for p, Initial residual = 0.00210871, Final residual = 9.17594e-07, No Iterations 390
time step continuity errors : sum local = 1.35198e-13, global = 1.63436e-15, cumulative = -3.3567e-11
ExecutionTime = 93.27 s  ClockTime = 93 s

Time = 1.01

Courant Number mean: 0.00140274 max: 0.030923
smoothSolver:  Solving for Ux, Initial residual = 0.000154915, Final residual = 4.0812e-06, No Iterations 1
smoothSolver:  Solving for Uy, Initial residual = 0.000429324, Final residual = 4.64111e-06, No Iterations 1
DICPCG:  Solving for p, Initial residual = 0.00298013, Final residual = 0.000146364, No Iterations 97
time step continuity errors : sum local = 2.15356e-11, global = -3.92527e-15, cumulative = -3.35709e-11
DICPCG:  Solving for p, Initial residual = 0.00209763, Final residual = 9.1041e-07, No Iterations 390
time step continuity errors : sum local = 1.338e-13, global = 1.63411e-15, cumulative = -3.35693e-11
ExecutionTime = 94.16 s  ClockTime = 94 s

Time = 1.02

Courant Number mean: 0.00140268 max: 0.0308678
smoothSolver:  Solving for Ux, Initial residual = 0.000153529, Final residual = 4.0339e-06, No Iterations 1
smoothSolver:  Solving for Uy, Initial residual = 0.000427105, Final residual = 4.60335e-06, No Iterations 1
DICPCG:  Solving for p, Initial residual = 0.00295116, Final residual = 0.000144825, No Iterations 97
time step continuity errors : sum local = 2.12552e-11, global = -3.89692e-15, cumulative = -3.35732e-11
DICPCG:  Solving for p, Initial residual = 0.00208469, Final residual = 9.91294e-07, No Iterations 389
time step continuity errors : sum local = 1.45317e-13, global = 1.6418e-15, cumulative = -3.35715e-11
ExecutionTime = 95.05 s  ClockTime = 95 s

Time = 1.03

Courant Number mean: 0.00140263 max: 0.0308128
smoothSolver:  Solving for Ux, Initial residual = 0.00015217, Final residual = 3.98764e-06, No Iterations 1
smoothSolver:  Solving for Uy, Initial residual = 0.000424917, Final residual = 4.56607e-06, No Iterations 1
DICPCG:  Solving for p, Initial residual = 0.0029219, Final residual = 0.00014346, No Iterations 97
time step continuity errors : sum local = 2.10016e-11, global = -3.79253e-15, cumulative = -3.35753e-11
DICPCG:  Solving for p, Initial residual = 0.00207115, Final residual = 9.84079e-07, No Iterations 389
time step continuity errors : sum local = 1.43895e-13, global = 1.61378e-15, cumulative = -3.35737e-11
ExecutionTime = 95.93 s  ClockTime = 96 s

Time = 1.04

Courant Number mean: 0.00140257 max: 0.0307579
smoothSolver:  Solving for Ux, Initial residual = 0.000150835, Final residual = 3.94238e-06, No Iterations 1
smoothSolver:  Solving for Uy, Initial residual = 0.000422761, Final residual = 4.52957e-06, No Iterations 1
DICPCG:  Solving for p, Initial residual = 0.00290343, Final residual = 0.000141961, No Iterations 97
time step continuity errors : sum local = 2.07305e-11, global = -3.78799e-15, cumulative = -3.35775e-11
DICPCG:  Solving for p, Initial residual = 0.00205794, Final residual = 9.68734e-07, No Iterations 389
time step continuity errors : sum local = 1.41304e-13, global = 1.59667e-15, cumulative = -3.35759e-11
ExecutionTime = 96.81 s  ClockTime = 97 s

Time = 1.05

Courant Number mean: 0.00140252 max: 0.0307031
smoothSolver:  Solving for Ux, Initial residual = 0.000149525, Final residual = 3.89808e-06, No Iterations 1
smoothSolver:  Solving for Uy, Initial residual = 0.00042063, Final residual = 4.49317e-06, No Iterations 1
DICPCG:  Solving for p, Initial residual = 0.00289724, Final residual = 0.000142118, No Iterations 97
time step continuity errors : sum local = 2.07025e-11, global = -3.80288e-15, cumulative = -3.35797e-11
DICPCG:  Solving for p, Initial residual = 0.00204743, Final residual = 9.58019e-07, No Iterations 389
time step continuity errors : sum local = 1.39398e-13, global = 1.54491e-15, cumulative = -3.35782e-11
ExecutionTime = 97.69 s  ClockTime = 98 s

Time = 1.06

Courant Number mean: 0.00140247 max: 0.0306485
smoothSolver:  Solving for Ux, Initial residual = 0.000148239, Final residual = 3.85478e-06, No Iterations 1
smoothSolver:  Solving for Uy, Initial residual = 0.000418521, Final residual = 4.4573e-06, No Iterations 1
DICPCG:  Solving for p, Initial residual = 0.00289763, Final residual = 0.000141661, No Iterations 97
time step continuity errors : sum local = 2.0586e-11, global = -3.98508e-15, cumulative = -3.35821e-11
DICPCG:  Solving for p, Initial residual = 0.00203859, Final residual = 9.48485e-07, No Iterations 389
time step continuity errors : sum local = 1.37683e-13, global = 1.53252e-15, cumulative = -3.35806e-11
ExecutionTime = 98.58 s  ClockTime = 99 s

Time = 1.07

Courant Number mean: 0.00140242 max: 0.030594
smoothSolver:  Solving for Ux, Initial residual = 0.000146976, Final residual = 3.81235e-06, No Iterations 1
smoothSolver:  Solving for Uy, Initial residual = 0.000416436, Final residual = 4.422e-06, No Iterations 1
DICPCG:  Solving for p, Initial residual = 0.00290473, Final residual = 0.00014264, No Iterations 97
time step continuity errors : sum local = 2.06779e-11, global = -3.82627e-15, cumulative = -3.35844e-11
DICPCG:  Solving for p, Initial residual = 0.00202599, Final residual = 9.43942e-07, No Iterations 389
time step continuity errors : sum local = 1.36683e-13, global = 1.54182e-15, cumulative = -3.35829e-11
ExecutionTime = 99.49 s  ClockTime = 100 s

Time = 1.08

Courant Number mean: 0.00140236 max: 0.0305396
smoothSolver:  Solving for Ux, Initial residual = 0.000145734, Final residual = 3.77079e-06, No Iterations 1
smoothSolver:  Solving for Uy, Initial residual = 0.000414377, Final residual = 4.38701e-06, No Iterations 1
DICPCG:  Solving for p, Initial residual = 0.00285819, Final residual = 0.000142069, No Iterations 96
time step continuity errors : sum local = 2.05455e-11, global = -4.34146e-15, cumulative = -3.35872e-11
DICPCG:  Solving for p, Initial residual = 0.0020113, Final residual = 9.31501e-07, No Iterations 389
time step continuity errors : sum local = 1.34566e-13, global = 1.4829e-15, cumulative = -3.35858e-11
ExecutionTime = 100.37 s  ClockTime = 100 s

Time = 1.09

Courant Number mean: 0.00140231 max: 0.0304854
[...]
ExecutionTime = 3728.3 s  ClockTime = 3729 s

Time = 39.74

Courant Number mean: 0.0013694 max: 0.014306
smoothSolver:  Solving for Ux, Initial residual = 4.29976e-06, Final residual = 4.29976e-06, No Iterations 0
smoothSolver:  Solving for Uy, Initial residual = 2.91705e-05, Final residual = 8.50045e-08, No Iterations 1
DICPCG:  Solving for p, Initial residual = 0.000706007, Final residual = 3.48647e-05, No Iterations 178
time step continuity errors : sum local = 1.57034e-12, global = 2.51567e-13, cumulative = 8.13357e-10
DICPCG:  Solving for p, Initial residual = 0.000710434, Final residual = 9.98629e-07, No Iterations 400
time step continuity errors : sum local = 4.49654e-14, global = -3.0785e-16, cumulative = 8.13357e-10
ExecutionTime = 3729.34 s  ClockTime = 3730 s

Time = 39.75

Courant Number mean: 0.0013694 max: 0.014305
smoothSolver:  Solving for Ux, Initial residual = 4.299e-06, Final residual = 4.299e-06, No Iterations 0
smoothSolver:  Solving for Uy, Initial residual = 2.91655e-05, Final residual = 8.49734e-08, No Iterations 1
DICPCG:  Solving for p, Initial residual = 0.000707046, Final residual = 3.48035e-05, No Iterations 178
time step continuity errors : sum local = 1.56751e-12, global = 2.51524e-13, cumulative = 8.13609e-10
DICPCG:  Solving for p, Initial residual = 0.000710329, Final residual = 9.95533e-07, No Iterations 400
time step continuity errors : sum local = 4.48238e-14, global = -3.06395e-16, cumulative = 8.13608e-10
ExecutionTime = 3730.37 s  ClockTime = 3731 s

Time = 39.76

Courant Number mean: 0.00136939 max: 0.0143039
smoothSolver:  Solving for Ux, Initial residual = 4.29823e-06, Final residual = 4.29823e-06, No Iterations 0
smoothSolver:  Solving for Uy, Initial residual = 2.91605e-05, Final residual = 8.49448e-08, No Iterations 1
DICPCG:  Solving for p, Initial residual = 0.000706175, Final residual = 3.48396e-05, No Iterations 178
time step continuity errors : sum local = 1.56906e-12, global = 2.51488e-13, cumulative = 8.1386e-10
DICPCG:  Solving for p, Initial residual = 0.000710142, Final residual = 9.97305e-07, No Iterations 400
time step continuity errors : sum local = 4.49015e-14, global = -3.07363e-16, cumulative = 8.13859e-10
ExecutionTime = 3731.41 s  ClockTime = 3732 s

Time = 39.77

Courant Number mean: 0.00136939 max: 0.0143029
smoothSolver:  Solving for Ux, Initial residual = 4.29746e-06, Final residual = 4.29746e-06, No Iterations 0
smoothSolver:  Solving for Uy, Initial residual = 2.91555e-05, Final residual = 8.49128e-08, No Iterations 1
DICPCG:  Solving for p, Initial residual = 0.000707259, Final residual = 3.48972e-05, No Iterations 178
time step continuity errors : sum local = 1.57158e-12, global = 2.51487e-13, cumulative = 8.14111e-10
DICPCG:  Solving for p, Initial residual = 0.000709971, Final residual = 9.97139e-07, No Iterations 400
time step continuity errors : sum local = 4.48921e-14, global = -3.0798e-16, cumulative = 8.14111e-10
ExecutionTime = 3732.45 s  ClockTime = 3733 s

Time = 39.78

Courant Number mean: 0.00136939 max: 0.0143018
smoothSolver:  Solving for Ux, Initial residual = 4.29671e-06, Final residual = 4.29671e-06, No Iterations 0
smoothSolver:  Solving for Uy, Initial residual = 2.91506e-05, Final residual = 8.4882e-08, No Iterations 1
DICPCG:  Solving for p, Initial residual = 0.000707954, Final residual = 3.48615e-05, No Iterations 178
time step continuity errors : sum local = 1.56991e-12, global = 2.51422e-13, cumulative = 8.14362e-10
DICPCG:  Solving for p, Initial residual = 0.000709803, Final residual = 9.89979e-07, No Iterations 400
time step continuity errors : sum local = 4.45679e-14, global = -3.06956e-16, cumulative = 8.14362e-10
ExecutionTime = 3733.48 s  ClockTime = 3734 s

Time = 39.79

Courant Number mean: 0.00136938 max: 0.0143008
smoothSolver:  Solving for Ux, Initial residual = 4.29595e-06, Final residual = 4.29595e-06, No Iterations 0
smoothSolver:  Solving for Uy, Initial residual = 2.91458e-05, Final residual = 8.4852e-08, No Iterations 1
DICPCG:  Solving for p, Initial residual = 0.000709385, Final residual = 3.49338e-05, No Iterations 178
time step continuity errors : sum local = 1.57308e-12, global = 2.51333e-13, cumulative = 8.14613e-10
DICPCG:  Solving for p, Initial residual = 0.000709712, Final residual = 9.93975e-07, No Iterations 400
time step continuity errors : sum local = 4.47452e-14, global = -3.05633e-16, cumulative = 8.14613e-10
ExecutionTime = 3734.52 s  ClockTime = 3735 s

Time = 39.8

Courant Number mean: 0.00136938 max: 0.0142997
smoothSolver:  Solving for Ux, Initial residual = 4.29515e-06, Final residual = 4.29515e-06, No Iterations 0
smoothSolver:  Solving for Uy, Initial residual = 2.91402e-05, Final residual = 8.482e-08, No Iterations 1
DICPCG:  Solving for p, Initial residual = 0.000708325, Final residual = 3.47737e-05, No Iterations 178
time step continuity errors : sum local = 1.56579e-12, global = 2.51395e-13, cumulative = 8.14864e-10
DICPCG:  Solving for p, Initial residual = 0.000709511, Final residual = 9.87911e-07, No Iterations 400
time step continuity errors : sum local = 4.44697e-14, global = -3.05783e-16, cumulative = 8.14864e-10
ExecutionTime = 3735.56 s  ClockTime = 3736 s

Time = 39.81

Courant Number mean: 0.00136938 max: 0.0142987
smoothSolver:  Solving for Ux, Initial residual = 4.29438e-06, Final residual = 4.29438e-06, No Iterations 0
smoothSolver:  Solving for Uy, Initial residual = 2.91349e-05, Final residual = 8.47871e-08, No Iterations 1
DICPCG:  Solving for p, Initial residual = 0.000705318, Final residual = 3.48249e-05, No Iterations 178
time step continuity errors : sum local = 1.56801e-12, global = 2.51348e-13, cumulative = 8.15115e-10
DICPCG:  Solving for p, Initial residual = 0.000709401, Final residual = 9.92112e-07, No Iterations 400
time step continuity errors : sum local = 4.46567e-14, global = -3.06168e-16, cumulative = 8.15115e-10
ExecutionTime = 3736.59 s  ClockTime = 3737 s

Time = 39.82

Courant Number mean: 0.00136938 max: 0.0142976
smoothSolver:  Solving for Ux, Initial residual = 4.29361e-06, Final residual = 4.29361e-06, No Iterations 0
smoothSolver:  Solving for Uy, Initial residual = 2.91298e-05, Final residual = 8.47557e-08, No Iterations 1
DICPCG:  Solving for p, Initial residual = 0.00070458, Final residual = 3.48141e-05, No Iterations 178
time step continuity errors : sum local = 1.56745e-12, global = 2.51291e-13, cumulative = 8.15366e-10
DICPCG:  Solving for p, Initial residual = 0.000709255, Final residual = 9.91821e-07, No Iterations 400
time step continuity errors : sum local = 4.46414e-14, global = -3.05207e-16, cumulative = 8.15366e-10
ExecutionTime = 3737.62 s  ClockTime = 3738 s

Time = 39.83

Courant Number mean: 0.00136937 max: 0.0142966
smoothSolver:  Solving for Ux, Initial residual = 4.29285e-06, Final residual = 4.29285e-06, No Iterations 0
smoothSolver:  Solving for Uy, Initial residual = 2.91247e-05, Final residual = 8.47248e-08, No Iterations 1
DICPCG:  Solving for p, Initial residual = 0.000704427, Final residual = 3.47085e-05, No Iterations 178
time step continuity errors : sum local = 1.56262e-12, global = 2.51156e-13, cumulative = 8.15617e-10
DICPCG:  Solving for p, Initial residual = 0.000709066, Final residual = 9.92681e-07, No Iterations 399
time step continuity errors : sum local = 4.4678e-14, global = -3.03121e-16, cumulative = 8.15617e-10
ExecutionTime = 3738.65 s  ClockTime = 3739 s

Time = 39.84

Courant Number mean: 0.00136937 max: 0.0142955
smoothSolver:  Solving for Ux, Initial residual = 4.29208e-06, Final residual = 4.29208e-06, No Iterations 0
smoothSolver:  Solving for Uy, Initial residual = 2.91197e-05, Final residual = 8.46942e-08, No Iterations 1
DICPCG:  Solving for p, Initial residual = 0.000704324, Final residual = 3.48556e-05, No Iterations 178
time step continuity errors : sum local = 1.56917e-12, global = 2.51255e-13, cumulative = 8.15868e-10
DICPCG:  Solving for p, Initial residual = 0.000708958, Final residual = 9.90699e-07, No Iterations 400
time step continuity errors : sum local = 4.45867e-14, global = -3.04219e-16, cumulative = 8.15868e-10
ExecutionTime = 3739.7 s  ClockTime = 3740 s

Time = 39.85

Courant Number mean: 0.00136937 max: 0.0142945
smoothSolver:  Solving for Ux, Initial residual = 4.29131e-06, Final residual = 4.29131e-06, No Iterations 0
smoothSolver:  Solving for Uy, Initial residual = 2.91147e-05, Final residual = 8.46632e-08, No Iterations 1
DICPCG:  Solving for p, Initial residual = 0.000704191, Final residual = 3.44227e-05, No Iterations 178
time step continuity errors : sum local = 1.54961e-12, global = 2.50925e-13, cumulative = 8.16119e-10
DICPCG:  Solving for p, Initial residual = 0.000708477, Final residual = 9.94905e-07, No Iterations 400
time step continuity errors : sum local = 4.47739e-14, global = -3.04502e-16, cumulative = 8.16118e-10
ExecutionTime = 3740.73 s  ClockTime = 3741 s

Time = 39.86

Courant Number mean: 0.00136936 max: 0.0142934
smoothSolver:  Solving for Ux, Initial residual = 4.29055e-06, Final residual = 4.29055e-06, No Iterations 0
smoothSolver:  Solving for Uy, Initial residual = 2.91096e-05, Final residual = 8.46325e-08, No Iterations 1
DICPCG:  Solving for p, Initial residual = 0.000704063, Final residual = 3.48035e-05, No Iterations 178
time step continuity errors : sum local = 1.56668e-12, global = 2.51168e-13, cumulative = 8.16369e-10
DICPCG:  Solving for p, Initial residual = 0.000708648, Final residual = 9.94173e-07, No Iterations 400
time step continuity errors : sum local = 4.47389e-14, global = -3.03714e-16, cumulative = 8.16369e-10
ExecutionTime = 3741.77 s  ClockTime = 3742 s

Time = 39.87

Courant Number mean: 0.00136936 max: 0.0142924
smoothSolver:  Solving for Ux, Initial residual = 4.28978e-06, Final residual = 4.28978e-06, No Iterations 0
smoothSolver:  Solving for Uy, Initial residual = 2.91046e-05, Final residual = 8.46019e-08, No Iterations 1
DICPCG:  Solving for p, Initial residual = 0.000703961, Final residual = 3.47669e-05, No Iterations 178
time step continuity errors : sum local = 1.56496e-12, global = 2.51105e-13, cumulative = 8.1662e-10
DICPCG:  Solving for p, Initial residual = 0.000708485, Final residual = 9.93176e-07, No Iterations 400
time step continuity errors : sum local = 4.46919e-14, global = -3.02148e-16, cumulative = 8.1662e-10
ExecutionTime = 3742.81 s  ClockTime = 3743 s

Time = 39.88

Courant Number mean: 0.00136936 max: 0.0142913
smoothSolver:  Solving for Ux, Initial residual = 4.28902e-06, Final residual = 4.28902e-06, No Iterations 0
smoothSolver:  Solving for Uy, Initial residual = 2.90996e-05, Final residual = 8.45711e-08, No Iterations 1
DICPCG:  Solving for p, Initial residual = 0.000703906, Final residual = 3.4771e-05, No Iterations 178
time step continuity errors : sum local = 1.56507e-12, global = 2.51061e-13, cumulative = 8.16871e-10
DICPCG:  Solving for p, Initial residual = 0.000708367, Final residual = 9.92441e-07, No Iterations 400
time step continuity errors : sum local = 4.46568e-14, global = -3.02682e-16, cumulative = 8.16871e-10
ExecutionTime = 3743.84 s  ClockTime = 3744 s

Time = 39.89

Courant Number mean: 0.00136935 max: 0.0142903
smoothSolver:  Solving for Ux, Initial residual = 4.28825e-06, Final residual = 4.28825e-06, No Iterations 0
smoothSolver:  Solving for Uy, Initial residual = 2.90946e-05, Final residual = 8.45404e-08, No Iterations 1
DICPCG:  Solving for p, Initial residual = 0.000703894, Final residual = 3.48191e-05, No Iterations 178
time step continuity errors : sum local = 1.56716e-12, global = 2.51058e-13, cumulative = 8.17122e-10
DICPCG:  Solving for p, Initial residual = 0.000708178, Final residual = 9.90368e-07, No Iterations 400
time step continuity errors : sum local = 4.45614e-14, global = -3.02986e-16, cumulative = 8.17121e-10
ExecutionTime = 3744.88 s  ClockTime = 3746 s

Time = 39.9

Courant Number mean: 0.00136935 max: 0.0142892
smoothSolver:  Solving for Ux, Initial residual = 4.28749e-06, Final residual = 4.28749e-06, No Iterations 0
smoothSolver:  Solving for Uy, Initial residual = 2.90896e-05, Final residual = 8.45097e-08, No Iterations 1
DICPCG:  Solving for p, Initial residual = 0.000704112, Final residual = 3.47703e-05, No Iterations 178
time step continuity errors : sum local = 1.56489e-12, global = 2.51001e-13, cumulative = 8.17373e-10
DICPCG:  Solving for p, Initial residual = 0.000708058, Final residual = 9.93829e-07, No Iterations 400
time step continuity errors : sum local = 4.47151e-14, global = -3.02509e-16, cumulative = 8.17372e-10
ExecutionTime = 3745.91 s  ClockTime = 3747 s

Time = 39.91

Courant Number mean: 0.00136935 max: 0.0142882
smoothSolver:  Solving for Ux, Initial residual = 4.28672e-06, Final residual = 4.28672e-06, No Iterations 0
smoothSolver:  Solving for Uy, Initial residual = 2.90846e-05, Final residual = 8.4479e-08, No Iterations 1
DICPCG:  Solving for p, Initial residual = 0.000705821, Final residual = 3.49546e-05, No Iterations 178
time step continuity errors : sum local = 1.57312e-12, global = 2.50991e-13, cumulative = 8.17623e-10
DICPCG:  Solving for p, Initial residual = 0.00070804, Final residual = 9.94943e-07, No Iterations 400
time step continuity errors : sum local = 4.47634e-14, global = -3.03023e-16, cumulative = 8.17623e-10
ExecutionTime = 3746.95 s  ClockTime = 3748 s

Time = 39.92

Courant Number mean: 0.00136934 max: 0.0142871
smoothSolver:  Solving for Ux, Initial residual = 4.28595e-06, Final residual = 4.28595e-06, No Iterations 0
smoothSolver:  Solving for Uy, Initial residual = 2.908e-05, Final residual = 8.44482e-08, No Iterations 1
DICPCG:  Solving for p, Initial residual = 0.000706107, Final residual = 3.50002e-05, No Iterations 178
time step continuity errors : sum local = 1.5751e-12, global = 2.50942e-13, cumulative = 8.17874e-10
DICPCG:  Solving for p, Initial residual = 0.000707945, Final residual = 9.93215e-07, No Iterations 400
time step continuity errors : sum local = 4.46834e-14, global = -3.01491e-16, cumulative = 8.17874e-10
ExecutionTime = 3747.99 s  ClockTime = 3749 s

Time = 39.93

Courant Number mean: 0.00136934 max: 0.0142861
smoothSolver:  Solving for Ux, Initial residual = 4.2852e-06, Final residual = 4.2852e-06, No Iterations 0
smoothSolver:  Solving for Uy, Initial residual = 2.90745e-05, Final residual = 8.44177e-08, No Iterations 1
DICPCG:  Solving for p, Initial residual = 0.000705057, Final residual = 3.46861e-05, No Iterations 178
time step continuity errors : sum local = 1.56088e-12, global = 2.50793e-13, cumulative = 8.18124e-10
DICPCG:  Solving for p, Initial residual = 0.000707551, Final residual = 9.95806e-07, No Iterations 400
time step continuity errors : sum local = 4.47977e-14, global = -3.00576e-16, cumulative = 8.18124e-10
ExecutionTime = 3749.03 s  ClockTime = 3750 s

Time = 39.94

Courant Number mean: 0.00136934 max: 0.0142851
smoothSolver:  Solving for Ux, Initial residual = 4.28445e-06, Final residual = 4.28445e-06, No Iterations 0
smoothSolver:  Solving for Uy, Initial residual = 2.90692e-05, Final residual = 8.43871e-08, No Iterations 1
DICPCG:  Solving for p, Initial residual = 0.000703027, Final residual = 3.47874e-05, No Iterations 178
time step continuity errors : sum local = 1.56536e-12, global = 2.50874e-13, cumulative = 8.18375e-10
DICPCG:  Solving for p, Initial residual = 0.00070744, Final residual = 9.88617e-07, No Iterations 400
time step continuity errors : sum local = 4.44722e-14, global = -3.00351e-16, cumulative = 8.18375e-10
ExecutionTime = 3750.06 s  ClockTime = 3751 s

Time = 39.95

Courant Number mean: 0.00136933 max: 0.014284
smoothSolver:  Solving for Ux, Initial residual = 4.28369e-06, Final residual = 4.28369e-06, No Iterations 0
smoothSolver:  Solving for Uy, Initial residual = 2.90641e-05, Final residual = 8.4356e-08, No Iterations 1
DICPCG:  Solving for p, Initial residual = 0.000702633, Final residual = 3.47241e-05, No Iterations 178
time step continuity errors : sum local = 1.56244e-12, global = 2.50815e-13, cumulative = 8.18625e-10
DICPCG:  Solving for p, Initial residual = 0.000707228, Final residual = 9.91224e-07, No Iterations 400
time step continuity errors : sum local = 4.45874e-14, global = -2.9915e-16, cumulative = 8.18625e-10
ExecutionTime = 3751.09 s  ClockTime = 3752 s

Time = 39.96

Courant Number mean: 0.00136933 max: 0.014283
smoothSolver:  Solving for Ux, Initial residual = 4.28293e-06, Final residual = 4.28293e-06, No Iterations 0
smoothSolver:  Solving for Uy, Initial residual = 2.90591e-05, Final residual = 8.43253e-08, No Iterations 1
DICPCG:  Solving for p, Initial residual = 0.000702482, Final residual = 3.46481e-05, No Iterations 178
time step continuity errors : sum local = 1.55895e-12, global = 2.50692e-13, cumulative = 8.18876e-10
DICPCG:  Solving for p, Initial residual = 0.000707103, Final residual = 9.93284e-07, No Iterations 400
time step continuity errors : sum local = 4.4678e-14, global = -2.99925e-16, cumulative = 8.18876e-10
ExecutionTime = 3752.13 s  ClockTime = 3753 s

Time = 39.97

Courant Number mean: 0.00136933 max: 0.0142819
smoothSolver:  Solving for Ux, Initial residual = 4.28217e-06, Final residual = 4.28217e-06, No Iterations 0
smoothSolver:  Solving for Uy, Initial residual = 2.90541e-05, Final residual = 8.42947e-08, No Iterations 1
DICPCG:  Solving for p, Initial residual = 0.000702368, Final residual = 3.4772e-05, No Iterations 178
time step continuity errors : sum local = 1.56445e-12, global = 2.50779e-13, cumulative = 8.19126e-10
DICPCG:  Solving for p, Initial residual = 0.000706981, Final residual = 9.87151e-07, No Iterations 400
time step continuity errors : sum local = 4.44e-14, global = -3.00073e-16, cumulative = 8.19126e-10
ExecutionTime = 3753.17 s  ClockTime = 3754 s

Time = 39.98

Courant Number mean: 0.00136933 max: 0.0142809
smoothSolver:  Solving for Ux, Initial residual = 4.28141e-06, Final residual = 4.28141e-06, No Iterations 0
smoothSolver:  Solving for Uy, Initial residual = 2.90491e-05, Final residual = 8.4264e-08, No Iterations 1
DICPCG:  Solving for p, Initial residual = 0.000702263, Final residual = 3.47276e-05, No Iterations 178
time step continuity errors : sum local = 1.56238e-12, global = 2.50726e-13, cumulative = 8.19377e-10
DICPCG:  Solving for p, Initial residual = 0.000706829, Final residual = 9.86107e-07, No Iterations 399
time step continuity errors : sum local = 4.4351e-14, global = -2.9671e-16, cumulative = 8.19376e-10
ExecutionTime = 3754.2 s  ClockTime = 3755 s

Time = 39.99

Courant Number mean: 0.00136932 max: 0.0142798
smoothSolver:  Solving for Ux, Initial residual = 4.28065e-06, Final residual = 4.28065e-06, No Iterations 0
smoothSolver:  Solving for Uy, Initial residual = 2.90441e-05, Final residual = 8.42336e-08, No Iterations 1
DICPCG:  Solving for p, Initial residual = 0.000702194, Final residual = 3.47757e-05, No Iterations 178
time step continuity errors : sum local = 1.56448e-12, global = 2.50717e-13, cumulative = 8.19627e-10
DICPCG:  Solving for p, Initial residual = 0.000706687, Final residual = 9.8546e-07, No Iterations 399
time step continuity errors : sum local = 4.43199e-14, global = -2.9725e-16, cumulative = 8.19627e-10
ExecutionTime = 3755.24 s  ClockTime = 3756 s

Time = 40

Courant Number mean: 0.00136932 max: 0.0142788
smoothSolver:  Solving for Ux, Initial residual = 4.27988e-06, Final residual = 4.27988e-06, No Iterations 0
smoothSolver:  Solving for Uy, Initial residual = 2.90391e-05, Final residual = 8.42029e-08, No Iterations 1
DICPCG:  Solving for p, Initial residual = 0.000702095, Final residual = 3.45065e-05, No Iterations 178
time step continuity errors : sum local = 1.5523e-12, global = 2.50296e-13, cumulative = 8.19877e-10
DICPCG:  Solving for p, Initial residual = 0.000706288, Final residual = 9.85179e-07, No Iterations 400
time step continuity errors : sum local = 4.43053e-14, global = -2.97895e-16, cumulative = 8.19877e-10
ExecutionTime = 3756.94 s  ClockTime = 3758 s

End

