/*---------------------------------------------------------------------------*\
  =========                 |
  \\      /  F ield         | OpenFOAM: The Open Source CFD Toolbox
   \\    /   O peration     | Website:  https://openfoam.org
    \\  /    A nd           | Version:  7
     \\/     M anipulation  |
\*---------------------------------------------------------------------------*/
Build  : 7-49b2b3b8b082
Exec   : icoFoam
Date   : May 14 2021
Time   : 21:11:27
Host   : "c401-034.stampede2.tacc.utexas.edu"
PID    : 230504
I/O    : uncollated
Case   : /work2/06781/jpborsos/stampede2/coe347/Final_Project/COE347/finalProject/results/highRe/wedge1
nProcs : 1
sigFpe : Enabling floating point exception trapping (FOAM_SIGFPE).
fileModificationChecking : Monitoring run-time modified files using timeStampMaster (fileModificationSkew 10)
allowSystemOperations : Allowing user-supplied system call operations

// * * * * * * * * * * * * * * * * * * * * * * * * * * * * * * * * * * * * * //
Create time

Create mesh for time = 0

Reading transportProperties

Reading field p

Reading field U

Reading/calculating face flux field phi


Starting time loop

Time = 0.05

Courant Number mean: 0.00704367 max: 0.155901
smoothSolver:  Solving for Ux, Initial residual = 1, Final residual = 7.15283e-06, No Iterations 18
smoothSolver:  Solving for Uy, Initial residual = 0, Final residual = 0, No Iterations 0
DICPCG:  Solving for p, Initial residual = 1, Final residual = 0.0476382, No Iterations 359
time step continuity errors : sum local = 1.17638e-07, global = 6.47904e-10, cumulative = 6.47904e-10
DICPCG:  Solving for p, Initial residual = 0.168664, Final residual = 9.42714e-07, No Iterations 488
time step continuity errors : sum local = 2.67485e-11, global = -3.09449e-14, cumulative = 6.47873e-10
ExecutionTime = 2.33 s  ClockTime = 2 s

Time = 0.1

Courant Number mean: 0.00704616 max: 0.266054
smoothSolver:  Solving for Ux, Initial residual = 0.135675, Final residual = 9.18668e-06, No Iterations 11
smoothSolver:  Solving for Uy, Initial residual = 0.162751, Final residual = 6.60975e-06, No Iterations 12
DICPCG:  Solving for p, Initial residual = 0.166224, Final residual = 0.00813559, No Iterations 188
time step continuity errors : sum local = 2.23368e-07, global = 3.70325e-08, cumulative = 3.76804e-08
DICPCG:  Solving for p, Initial residual = 0.235375, Final residual = 9.98124e-07, No Iterations 491
time step continuity errors : sum local = 2.06778e-11, global = 1.34633e-13, cumulative = 3.76805e-08
ExecutionTime = 3.67 s  ClockTime = 4 s

Time = 0.15

Courant Number mean: 0.00705887 max: 0.260853
smoothSolver:  Solving for Ux, Initial residual = 0.0294731, Final residual = 9.45177e-06, No Iterations 10
smoothSolver:  Solving for Uy, Initial residual = 0.0269899, Final residual = 6.61265e-06, No Iterations 9
DICPCG:  Solving for p, Initial residual = 0.422128, Final residual = 0.0209752, No Iterations 118
time step continuity errors : sum local = 1.63519e-07, global = -2.12215e-09, cumulative = 3.55584e-08
DICPCG:  Solving for p, Initial residual = 0.267549, Final residual = 9.69531e-07, No Iterations 476
time step continuity errors : sum local = 5.7909e-12, global = -3.6188e-14, cumulative = 3.55583e-08
ExecutionTime = 4.84 s  ClockTime = 5 s

Time = 0.2

Courant Number mean: 0.00705098 max: 0.222382
smoothSolver:  Solving for Ux, Initial residual = 0.00862834, Final residual = 6.47216e-06, No Iterations 9
smoothSolver:  Solving for Uy, Initial residual = 0.010974, Final residual = 6.47417e-06, No Iterations 7
DICPCG:  Solving for p, Initial residual = 0.224688, Final residual = 0.0110895, No Iterations 107
time step continuity errors : sum local = 3.885e-08, global = 4.123e-10, cumulative = 3.59706e-08
DICPCG:  Solving for p, Initial residual = 0.131028, Final residual = 9.1855e-07, No Iterations 462
time step continuity errors : sum local = 2.79516e-12, global = 1.73455e-14, cumulative = 3.59706e-08
ExecutionTime = 5.95 s  ClockTime = 6 s

Time = 0.25

Courant Number mean: 0.00704723 max: 0.206
smoothSolver:  Solving for Ux, Initial residual = 0.00387017, Final residual = 8.38498e-06, No Iterations 8
smoothSolver:  Solving for Uy, Initial residual = 0.00501061, Final residual = 7.35748e-06, No Iterations 7
DICPCG:  Solving for p, Initial residual = 0.114833, Final residual = 0.00562078, No Iterations 48
time step continuity errors : sum local = 1.16628e-08, global = -1.3287e-11, cumulative = 3.59574e-08
DICPCG:  Solving for p, Initial residual = 0.0552568, Final residual = 9.5447e-07, No Iterations 434
time step continuity errors : sum local = 1.95806e-12, global = 6.97249e-15, cumulative = 3.59574e-08
ExecutionTime = 6.91 s  ClockTime = 7 s

Time = 0.3

Courant Number mean: 0.00704368 max: 0.200129
smoothSolver:  Solving for Ux, Initial residual = 0.00319834, Final residual = 6.35456e-06, No Iterations 8
smoothSolver:  Solving for Uy, Initial residual = 0.00482837, Final residual = 9.98328e-06, No Iterations 6
DICPCG:  Solving for p, Initial residual = 0.0545893, Final residual = 0.00260783, No Iterations 98
time step continuity errors : sum local = 5.46807e-09, global = 4.65713e-12, cumulative = 3.5962e-08
DICPCG:  Solving for p, Initial residual = 0.0213843, Final residual = 9.70975e-07, No Iterations 420
time step continuity errors : sum local = 2.00251e-12, global = 2.91295e-16, cumulative = 3.5962e-08
ExecutionTime = 7.92 s  ClockTime = 8 s

Time = 0.35

Courant Number mean: 0.0070406 max: 0.194192
smoothSolver:  Solving for Ux, Initial residual = 0.00257103, Final residual = 9.08645e-06, No Iterations 7
smoothSolver:  Solving for Uy, Initial residual = 0.00424212, Final residual = 9.17721e-06, No Iterations 6
DICPCG:  Solving for p, Initial residual = 0.0367539, Final residual = 0.00183052, No Iterations 96
time step continuity errors : sum local = 3.63856e-09, global = -3.58882e-12, cumulative = 3.59584e-08
DICPCG:  Solving for p, Initial residual = 0.011029, Final residual = 8.97929e-07, No Iterations 416
time step continuity errors : sum local = 1.76415e-12, global = -1.92647e-14, cumulative = 3.59584e-08
ExecutionTime = 8.92 s  ClockTime = 9 s

Time = 0.4

Courant Number mean: 0.00703783 max: 0.188363
smoothSolver:  Solving for Ux, Initial residual = 0.00217259, Final residual = 7.46035e-06, No Iterations 7
smoothSolver:  Solving for Uy, Initial residual = 0.00386837, Final residual = 7.93161e-06, No Iterations 6
DICPCG:  Solving for p, Initial residual = 0.0291834, Final residual = 0.00144183, No Iterations 97
time step continuity errors : sum local = 2.77389e-09, global = -1.15351e-12, cumulative = 3.59573e-08
DICPCG:  Solving for p, Initial residual = 0.00767612, Final residual = 9.06762e-07, No Iterations 414
time step continuity errors : sum local = 1.72922e-12, global = -4.87849e-15, cumulative = 3.59573e-08
ExecutionTime = 9.91 s  ClockTime = 10 s

Time = 0.45

Courant Number mean: 0.00703529 max: 0.182844
smoothSolver:  Solving for Ux, Initial residual = 0.00189116, Final residual = 6.25191e-06, No Iterations 7
smoothSolver:  Solving for Uy, Initial residual = 0.00358947, Final residual = 7.18042e-06, No Iterations 6
DICPCG:  Solving for p, Initial residual = 0.0244958, Final residual = 0.00117648, No Iterations 97
time step continuity errors : sum local = 2.20406e-09, global = -9.24328e-13, cumulative = 3.59563e-08
DICPCG:  Solving for p, Initial residual = 0.00605473, Final residual = 9.69565e-07, No Iterations 411
time step continuity errors : sum local = 1.8003e-12, global = -9.48394e-15, cumulative = 3.59563e-08
ExecutionTime = 10.9 s  ClockTime = 11 s

Time = 0.5

Courant Number mean: 0.00703294 max: 0.177687
smoothSolver:  Solving for Ux, Initial residual = 0.00167857, Final residual = 9.8357e-06, No Iterations 6
smoothSolver:  Solving for Uy, Initial residual = 0.00335862, Final residual = 6.47148e-06, No Iterations 6
DICPCG:  Solving for p, Initial residual = 0.0214502, Final residual = 0.00101624, No Iterations 98
time step continuity errors : sum local = 1.85715e-09, global = -9.84755e-13, cumulative = 3.59553e-08
DICPCG:  Solving for p, Initial residual = 0.00539168, Final residual = 9.16491e-07, No Iterations 412
time step continuity errors : sum local = 1.66247e-12, global = -1.03133e-14, cumulative = 3.59553e-08
ExecutionTime = 11.9 s  ClockTime = 12 s

Time = 0.55

Courant Number mean: 0.00703077 max: 0.172917
smoothSolver:  Solving for Ux, Initial residual = 0.00150857, Final residual = 8.57262e-06, No Iterations 6
smoothSolver:  Solving for Uy, Initial residual = 0.00315756, Final residual = 5.92942e-06, No Iterations 6
DICPCG:  Solving for p, Initial residual = 0.0190582, Final residual = 0.000948509, No Iterations 95
time step continuity errors : sum local = 1.69548e-09, global = -6.60103e-13, cumulative = 3.59547e-08
DICPCG:  Solving for p, Initial residual = 0.00463661, Final residual = 9.75231e-07, No Iterations 363
time step continuity errors : sum local = 1.73103e-12, global = -7.16304e-14, cumulative = 3.59546e-08
ExecutionTime = 12.8 s  ClockTime = 13 s

Time = 0.6

Courant Number mean: 0.00702872 max: 0.168499
smoothSolver:  Solving for Ux, Initial residual = 0.00137526, Final residual = 7.55655e-06, No Iterations 6
smoothSolver:  Solving for Uy, Initial residual = 0.00299879, Final residual = 5.44896e-06, No Iterations 6
DICPCG:  Solving for p, Initial residual = 0.0172028, Final residual = 0.000852536, No Iterations 95
time step continuity errors : sum local = 1.49446e-09, global = -3.56449e-13, cumulative = 3.59542e-08
DICPCG:  Solving for p, Initial residual = 0.00426904, Final residual = 9.88073e-07, No Iterations 364
time step continuity errors : sum local = 1.7208e-12, global = 5.68268e-14, cumulative = 3.59543e-08
ExecutionTime = 13.71 s  ClockTime = 14 s

Time = 0.65

Courant Number mean: 0.00702678 max: 0.165289
smoothSolver:  Solving for Ux, Initial residual = 0.00126463, Final residual = 6.72969e-06, No Iterations 6
smoothSolver:  Solving for Uy, Initial residual = 0.00286045, Final residual = 9.51349e-06, No Iterations 5
DICPCG:  Solving for p, Initial residual = 0.0156697, Final residual = 0.000773085, No Iterations 96
time step continuity errors : sum local = 1.33101e-09, global = -2.60462e-13, cumulative = 3.5954e-08
DICPCG:  Solving for p, Initial residual = 0.00409657, Final residual = 9.29692e-07, No Iterations 359
time step continuity errors : sum local = 1.59061e-12, global = -4.88266e-14, cumulative = 3.5954e-08
ExecutionTime = 14.6 s  ClockTime = 15 s

Time = 0.7

Courant Number mean: 0.00702495 max: 0.164101
smoothSolver:  Solving for Ux, Initial residual = 0.00117119, Final residual = 6.04701e-06, No Iterations 6
smoothSolver:  Solving for Uy, Initial residual = 0.0027385, Final residual = 8.87922e-06, No Iterations 5
DICPCG:  Solving for p, Initial residual = 0.0143041, Final residual = 0.00071271, No Iterations 95
time step continuity errors : sum local = 1.20646e-09, global = -2.95942e-13, cumulative = 3.59537e-08
DICPCG:  Solving for p, Initial residual = 0.003752, Final residual = 9.7283e-07, No Iterations 357
time step continuity errors : sum local = 1.63698e-12, global = -2.18798e-14, cumulative = 3.59537e-08
ExecutionTime = 15.49 s  ClockTime = 16 s

Time = 0.75

Courant Number mean: 0.0070232 max: 0.162853
smoothSolver:  Solving for Ux, Initial residual = 0.00109193, Final residual = 5.47496e-06, No Iterations 6
smoothSolver:  Solving for Uy, Initial residual = 0.00263164, Final residual = 8.30766e-06, No Iterations 5
DICPCG:  Solving for p, Initial residual = 0.0131772, Final residual = 0.000652833, No Iterations 95
time step continuity errors : sum local = 1.08785e-09, global = -1.67217e-13, cumulative = 3.59535e-08
DICPCG:  Solving for p, Initial residual = 0.00348792, Final residual = 9.53618e-07, No Iterations 356
time step continuity errors : sum local = 1.58004e-12, global = -3.05151e-14, cumulative = 3.59535e-08
ExecutionTime = 16.38 s  ClockTime = 16 s

Time = 0.8

Courant Number mean: 0.00702153 max: 0.16156
smoothSolver:  Solving for Ux, Initial residual = 0.00102336, Final residual = 9.3685e-06, No Iterations 5
smoothSolver:  Solving for Uy, Initial residual = 0.00253593, Final residual = 7.80349e-06, No Iterations 5
DICPCG:  Solving for p, Initial residual = 0.0122589, Final residual = 0.000599706, No Iterations 98
time step continuity errors : sum local = 9.84461e-10, global = -3.38164e-13, cumulative = 3.59531e-08
DICPCG:  Solving for p, Initial residual = 0.00367785, Final residual = 9.30741e-07, No Iterations 407
time step continuity errors : sum local = 1.51939e-12, global = -1.03142e-14, cumulative = 3.59531e-08
ExecutionTime = 17.36 s  ClockTime = 17 s

Time = 0.85

Courant Number mean: 0.00701994 max: 0.160248
smoothSolver:  Solving for Ux, Initial residual = 0.000960136, Final residual = 8.63079e-06, No Iterations 5
smoothSolver:  Solving for Uy, Initial residual = 0.00243624, Final residual = 7.36399e-06, No Iterations 5
DICPCG:  Solving for p, Initial residual = 0.0113765, Final residual = 0.000566527, No Iterations 95
time step continuity errors : sum local = 9.15689e-10, global = -3.95817e-13, cumulative = 3.59527e-08
DICPCG:  Solving for p, Initial residual = 0.00332454, Final residual = 9.27027e-07, No Iterations 405
time step continuity errors : sum local = 1.49065e-12, global = -4.21069e-15, cumulative = 3.59527e-08
ExecutionTime = 18.32 s  ClockTime = 18 s

Time = 0.9

Courant Number mean: 0.00701841 max: 0.158915
smoothSolver:  Solving for Ux, Initial residual = 0.000908561, Final residual = 7.9721e-06, No Iterations 5
smoothSolver:  Solving for Uy, Initial residual = 0.00236135, Final residual = 6.96004e-06, No Iterations 5
DICPCG:  Solving for p, Initial residual = 0.0106613, Final residual = 0.000528359, No Iterations 96
time step continuity errors : sum local = 8.42609e-10, global = -1.729e-13, cumulative = 3.59526e-08
DICPCG:  Solving for p, Initial residual = 0.00319493, Final residual = 9.93522e-07, No Iterations 404
time step continuity errors : sum local = 1.57624e-12, global = -3.62852e-15, cumulative = 3.59525e-08
ExecutionTime = 19.29 s  ClockTime = 19 s

Time = 0.95

Courant Number mean: 0.00701693 max: 0.157572
smoothSolver:  Solving for Ux, Initial residual = 0.000862016, Final residual = 7.39807e-06, No Iterations 5
smoothSolver:  Solving for Uy, Initial residual = 0.00229039, Final residual = 6.59358e-06, No Iterations 5
DICPCG:  Solving for p, Initial residual = 0.0100338, Final residual = 0.000494113, No Iterations 96
time step continuity errors : sum local = 7.776e-10, global = -2.22245e-13, cumulative = 3.59523e-08
DICPCG:  Solving for p, Initial residual = 0.00303645, Final residual = 9.94776e-07, No Iterations 403
time step continuity errors : sum local = 1.55784e-12, global = -3.63212e-15, cumulative = 3.59523e-08
ExecutionTime = 20.25 s  ClockTime = 20 s

Time = 1

Courant Number mean: 0.0070155 max: 0.156227
smoothSolver:  Solving for Ux, Initial residual = 0.000820306, Final residual = 6.89235e-06, No Iterations 5
smoothSolver:  Solving for Uy, Initial residual = 0.00222547, Final residual = 6.25938e-06, No Iterations 5
DICPCG:  Solving for p, Initial residual = 0.00949246, Final residual = 0.000468408, No Iterations 96
time step continuity errors : sum local = 7.27903e-10, global = -1.89505e-13, cumulative = 3.59521e-08
DICPCG:  Solving for p, Initial residual = 0.00290377, Final residual = 9.35246e-07, No Iterations 403
time step continuity errors : sum local = 1.44638e-12, global = -3.60781e-15, cumulative = 3.59521e-08
ExecutionTime = 21.92 s  ClockTime = 22 s

Time = 1.05

Courant Number mean: 0.00701411 max: 0.154885
smoothSolver:  Solving for Ux, Initial residual = 0.000782595, Final residual = 6.44488e-06, No Iterations 5
smoothSolver:  Solving for Uy, Initial residual = 0.00216518, Final residual = 5.9539e-06, No Iterations 5
DICPCG:  Solving for p, Initial residual = 0.00903265, Final residual = 0.000442141, No Iterations 96
time step continuity errors : sum local = 6.78688e-10, global = -1.78421e-13, cumulative = 3.5952e-08
DICPCG:  Solving for p, Initial residual = 0.00277744, Final residual = 9.63398e-07, No Iterations 402
time step continuity errors : sum local = 1.4719e-12, global = -2.98216e-15, cumulative = 3.59519e-08
ExecutionTime = 22.88 s  ClockTime = 23 s

Time = 1.1

Courant Number mean: 0.00701277 max: 0.153552
smoothSolver:  Solving for Ux, Initial residual = 0.000748367, Final residual = 6.04657e-06, No Iterations 5
smoothSolver:  Solving for Uy, Initial residual = 0.0021094, Final residual = 5.67336e-06, No Iterations 5
DICPCG:  Solving for p, Initial residual = 0.00868512, Final residual = 0.000432854, No Iterations 95
time step continuity errors : sum local = 6.56547e-10, global = -1.28057e-13, cumulative = 3.59518e-08
DICPCG:  Solving for p, Initial residual = 0.00267684, Final residual = 9.3049e-07, No Iterations 402
time step continuity errors : sum local = 1.40481e-12, global = -3.50255e-15, cumulative = 3.59518e-08
ExecutionTime = 23.84 s  ClockTime = 24 s

Time = 1.15

Courant Number mean: 0.00701146 max: 0.152232
smoothSolver:  Solving for Ux, Initial residual = 0.000717094, Final residual = 5.69035e-06, No Iterations 5
smoothSolver:  Solving for Uy, Initial residual = 0.00205721, Final residual = 5.41439e-06, No Iterations 5
DICPCG:  Solving for p, Initial residual = 0.00834708, Final residual = 0.000413909, No Iterations 95
time step continuity errors : sum local = 6.20568e-10, global = -1.19686e-13, cumulative = 3.59517e-08
DICPCG:  Solving for p, Initial residual = 0.00257805, Final residual = 9.65791e-07, No Iterations 401
time step continuity errors : sum local = 1.44155e-12, global = -1.69097e-15, cumulative = 3.59517e-08
ExecutionTime = 24.8 s  ClockTime = 25 s

Time = 1.2

Courant Number mean: 0.00701018 max: 0.150927
smoothSolver:  Solving for Ux, Initial residual = 0.000688412, Final residual = 5.36995e-06, No Iterations 5
smoothSolver:  Solving for Uy, Initial residual = 0.00200824, Final residual = 5.17565e-06, No Iterations 5
DICPCG:  Solving for p, Initial residual = 0.00813119, Final residual = 0.000398773, No Iterations 95
time step continuity errors : sum local = 5.91226e-10, global = -8.76084e-14, cumulative = 3.59516e-08
DICPCG:  Solving for p, Initial residual = 0.00250405, Final residual = 9.27144e-07, No Iterations 401
time step continuity errors : sum local = 1.36863e-12, global = -1.77765e-15, cumulative = 3.59516e-08
ExecutionTime = 25.75 s  ClockTime = 26 s

Time = 1.25

Courant Number mean: 0.00700894 max: 0.149641
smoothSolver:  Solving for Ux, Initial residual = 0.000661978, Final residual = 9.86779e-06, No Iterations 4
smoothSolver:  Solving for Uy, Initial residual = 0.0019622, Final residual = 9.8144e-06, No Iterations 4
DICPCG:  Solving for p, Initial residual = 0.00840279, Final residual = 0.000415527, No Iterations 104
time step continuity errors : sum local = 6.09224e-10, global = -3.61852e-13, cumulative = 3.59512e-08
DICPCG:  Solving for p, Initial residual = 0.00357546, Final residual = 9.47791e-07, No Iterations 404
time step continuity errors : sum local = 1.38317e-12, global = -1.04796e-14, cumulative = 3.59512e-08
ExecutionTime = 26.71 s  ClockTime = 27 s

Time = 1.3

Courant Number mean: 0.00700775 max: 0.148396
smoothSolver:  Solving for Ux, Initial residual = 0.000633603, Final residual = 9.42097e-06, No Iterations 4
smoothSolver:  Solving for Uy, Initial residual = 0.00190167, Final residual = 9.46663e-06, No Iterations 4
DICPCG:  Solving for p, Initial residual = 0.00802374, Final residual = 0.000400392, No Iterations 96
time step continuity errors : sum local = 5.79622e-10, global = -5.29249e-13, cumulative = 3.59507e-08
DICPCG:  Solving for p, Initial residual = 0.0032227, Final residual = 9.46173e-07, No Iterations 402
time step continuity errors : sum local = 1.36409e-12, global = -6.36083e-15, cumulative = 3.59507e-08
ExecutionTime = 27.68 s  ClockTime = 28 s

Time = 1.35

Courant Number mean: 0.00700659 max: 0.147168
smoothSolver:  Solving for Ux, Initial residual = 0.000612097, Final residual = 8.977e-06, No Iterations 4
smoothSolver:  Solving for Uy, Initial residual = 0.00186422, Final residual = 9.09859e-06, No Iterations 4
DICPCG:  Solving for p, Initial residual = 0.0077651, Final residual = 0.00038094, No Iterations 97
time step continuity errors : sum local = 5.4594e-10, global = -1.75836e-13, cumulative = 3.59505e-08
DICPCG:  Solving for p, Initial residual = 0.00316963, Final residual = 9.13294e-07, No Iterations 402
time step continuity errors : sum local = 1.30345e-12, global = -4.86661e-15, cumulative = 3.59505e-08
ExecutionTime = 28.63 s  ClockTime = 29 s

Time = 1.4

Courant Number mean: 0.00700545 max: 0.145961
smoothSolver:  Solving for Ux, Initial residual = 0.000591367, Final residual = 8.57154e-06, No Iterations 4
smoothSolver:  Solving for Uy, Initial residual = 0.00182599, Final residual = 8.76474e-06, No Iterations 4
DICPCG:  Solving for p, Initial residual = 0.00759731, Final residual = 0.000369899, No Iterations 97
time step continuity errors : sum local = 5.24633e-10, global = -2.55391e-13, cumulative = 3.59503e-08
DICPCG:  Solving for p, Initial residual = 0.00309484, Final residual = 9.6114e-07, No Iterations 401
time step continuity errors : sum local = 1.35768e-12, global = -3.4332e-15, cumulative = 3.59503e-08
ExecutionTime = 29.58 s  ClockTime = 30 s

Time = 1.45

Courant Number mean: 0.00700433 max: 0.144777
smoothSolver:  Solving for Ux, Initial residual = 0.000572034, Final residual = 8.19707e-06, No Iterations 4
smoothSolver:  Solving for Uy, Initial residual = 0.00178982, Final residual = 8.45094e-06, No Iterations 4
DICPCG:  Solving for p, Initial residual = 0.00742152, Final residual = 0.00035825, No Iterations 97
time step continuity errors : sum local = 5.03033e-10, global = -2.28028e-13, cumulative = 3.595e-08
DICPCG:  Solving for p, Initial residual = 0.00302012, Final residual = 9.534e-07, No Iterations 401
time step continuity errors : sum local = 1.33343e-12, global = -3.87377e-15, cumulative = 3.595e-08
ExecutionTime = 30.54 s  ClockTime = 31 s

Time = 1.5

Courant Number mean: 0.00700324 max: 0.143614
smoothSolver:  Solving for Ux, Initial residual = 0.000553867, Final residual = 7.85104e-06, No Iterations 4
smoothSolver:  Solving for Uy, Initial residual = 0.00175518, Final residual = 8.15529e-06, No Iterations 4
DICPCG:  Solving for p, Initial residual = 0.00732443, Final residual = 0.000350029, No Iterations 97
time step continuity errors : sum local = 4.86685e-10, global = -2.18831e-13, cumulative = 3.59498e-08
DICPCG:  Solving for p, Initial residual = 0.00296668, Final residual = 9.41294e-07, No Iterations 401
time step continuity errors : sum local = 1.30372e-12, global = -4.32713e-15, cumulative = 3.59498e-08
ExecutionTime = 31.49 s  ClockTime = 32 s

Time = 1.55

Courant Number mean: 0.00700216 max: 0.142475
smoothSolver:  Solving for Ux, Initial residual = 0.000536775, Final residual = 7.53016e-06, No Iterations 4
smoothSolver:  Solving for Uy, Initial residual = 0.00172201, Final residual = 7.87642e-06, No Iterations 4
DICPCG:  Solving for p, Initial residual = 0.00717884, Final residual = 0.000341631, No Iterations 97
time step continuity errors : sum local = 4.70417e-10, global = -2.20135e-13, cumulative = 3.59496e-08
DICPCG:  Solving for p, Initial residual = 0.00290299, Final residual = 9.96841e-07, No Iterations 400
time step continuity errors : sum local = 1.36732e-12, global = -2.74794e-15, cumulative = 3.59496e-08
ExecutionTime = 32.45 s  ClockTime = 33 s

Time = 1.6

Courant Number mean: 0.00700111 max: 0.141357
smoothSolver:  Solving for Ux, Initial residual = 0.000520662, Final residual = 7.23181e-06, No Iterations 4
smoothSolver:  Solving for Uy, Initial residual = 0.00169021, Final residual = 7.6143e-06, No Iterations 4
DICPCG:  Solving for p, Initial residual = 0.00702049, Final residual = 0.000332901, No Iterations 97
time step continuity errors : sum local = 4.54033e-10, global = -2.08224e-13, cumulative = 3.59494e-08
DICPCG:  Solving for p, Initial residual = 0.00284571, Final residual = 9.94026e-07, No Iterations 400
time step continuity errors : sum local = 1.35061e-12, global = -2.95555e-15, cumulative = 3.59494e-08
ExecutionTime = 33.4 s  ClockTime = 34 s

Time = 1.65

Courant Number mean: 0.00700008 max: 0.140263
smoothSolver:  Solving for Ux, Initial residual = 0.000505428, Final residual = 6.95389e-06, No Iterations 4
smoothSolver:  Solving for Uy, Initial residual = 0.00165971, Final residual = 7.36711e-06, No Iterations 4
DICPCG:  Solving for p, Initial residual = 0.00687339, Final residual = 0.000325039, No Iterations 97
time step continuity errors : sum local = 4.39193e-10, global = -1.97038e-13, cumulative = 3.59492e-08
DICPCG:  Solving for p, Initial residual = 0.00279121, Final residual = 9.78409e-07, No Iterations 400
time step continuity errors : sum local = 1.31719e-12, global = -3.10244e-15, cumulative = 3.59492e-08
ExecutionTime = 34.35 s  ClockTime = 34 s

Time = 1.7

Courant Number mean: 0.00699907 max: 0.13919
smoothSolver:  Solving for Ux, Initial residual = 0.000491003, Final residual = 6.69439e-06, No Iterations 4
smoothSolver:  Solving for Uy, Initial residual = 0.0016303, Final residual = 7.13279e-06, No Iterations 4
DICPCG:  Solving for p, Initial residual = 0.00677725, Final residual = 0.000336969, No Iterations 96
time step continuity errors : sum local = 4.51194e-10, global = -1.76616e-13, cumulative = 3.5949e-08
DICPCG:  Solving for p, Initial residual = 0.00275182, Final residual = 9.65955e-07, No Iterations 400
time step continuity errors : sum local = 1.28877e-12, global = -3.23992e-15, cumulative = 3.5949e-08
ExecutionTime = 35.29 s  ClockTime = 35 s

Time = 1.75

Courant Number mean: 0.00699808 max: 0.13814
smoothSolver:  Solving for Ux, Initial residual = 0.000477326, Final residual = 6.45156e-06, No Iterations 4
smoothSolver:  Solving for Uy, Initial residual = 0.00160189, Final residual = 6.91047e-06, No Iterations 4
DICPCG:  Solving for p, Initial residual = 0.00670031, Final residual = 0.000331164, No Iterations 96
time step continuity errors : sum local = 4.39482e-10, global = -1.55217e-13, cumulative = 3.59488e-08
DICPCG:  Solving for p, Initial residual = 0.00271259, Final residual = 9.52776e-07, No Iterations 400
time step continuity errors : sum local = 1.25992e-12, global = -3.18631e-15, cumulative = 3.59488e-08
ExecutionTime = 36.25 s  ClockTime = 36 s

Time = 1.8

Courant Number mean: 0.0069971 max: 0.137111
smoothSolver:  Solving for Ux, Initial residual = 0.000464341, Final residual = 6.2236e-06, No Iterations 4
smoothSolver:  Solving for Uy, Initial residual = 0.00157465, Final residual = 6.7016e-06, No Iterations 4
DICPCG:  Solving for p, Initial residual = 0.006612, Final residual = 0.000326159, No Iterations 96
time step continuity errors : sum local = 4.29004e-10, global = -1.39184e-13, cumulative = 3.59487e-08
DICPCG:  Solving for p, Initial residual = 0.00267139, Final residual = 9.37095e-07, No Iterations 400
time step continuity errors : sum local = 1.22815e-12, global = -3.36266e-15, cumulative = 3.59487e-08
ExecutionTime = 37.2 s  ClockTime = 37 s

Time = 1.85

Courant Number mean: 0.00699615 max: 0.136103
smoothSolver:  Solving for Ux, Initial residual = 0.000451993, Final residual = 6.00939e-06, No Iterations 4
smoothSolver:  Solving for Uy, Initial residual = 0.00154819, Final residual = 6.50306e-06, No Iterations 4
DICPCG:  Solving for p, Initial residual = 0.00643595, Final residual = 0.000317297, No Iterations 96
time step continuity errors : sum local = 4.13702e-10, global = -1.3992e-13, cumulative = 3.59485e-08
DICPCG:  Solving for p, Initial residual = 0.00262067, Final residual = 9.81794e-07, No Iterations 399
time step continuity errors : sum local = 1.27575e-12, global = -2.73742e-15, cumulative = 3.59485e-08
ExecutionTime = 38.15 s  ClockTime = 38 s

Time = 1.9

Courant Number mean: 0.0069952 max: 0.135116
smoothSolver:  Solving for Ux, Initial residual = 0.000440222, Final residual = 5.80748e-06, No Iterations 4
smoothSolver:  Solving for Uy, Initial residual = 0.00152272, Final residual = 6.31461e-06, No Iterations 4
DICPCG:  Solving for p, Initial residual = 0.00633155, Final residual = 0.000310647, No Iterations 96
time step continuity errors : sum local = 4.01615e-10, global = -1.37919e-13, cumulative = 3.59484e-08
DICPCG:  Solving for p, Initial residual = 0.00258003, Final residual = 9.87386e-07, No Iterations 399
time step continuity errors : sum local = 1.27222e-12, global = -2.80527e-15, cumulative = 3.59484e-08
ExecutionTime = 39.1 s  ClockTime = 39 s

Time = 1.95

Courant Number mean: 0.00699428 max: 0.134149
smoothSolver:  Solving for Ux, Initial residual = 0.000428979, Final residual = 5.6168e-06, No Iterations 4
smoothSolver:  Solving for Uy, Initial residual = 0.00149806, Final residual = 6.13569e-06, No Iterations 4
DICPCG:  Solving for p, Initial residual = 0.00619099, Final residual = 0.000304719, No Iterations 96
time step continuity errors : sum local = 3.90683e-10, global = -1.35988e-13, cumulative = 3.59483e-08
DICPCG:  Solving for p, Initial residual = 0.00252978, Final residual = 9.4297e-07, No Iterations 399
time step continuity errors : sum local = 1.20504e-12, global = -2.74688e-15, cumulative = 3.59483e-08
ExecutionTime = 40.05 s  ClockTime = 40 s

Time = 2

Courant Number mean: 0.00699336 max: 0.133203
smoothSolver:  Solving for Ux, Initial residual = 0.000418243, Final residual = 5.43664e-06, No Iterations 4
smoothSolver:  Solving for Uy, Initial residual = 0.00147416, Final residual = 5.96489e-06, No Iterations 4
DICPCG:  Solving for p, Initial residual = 0.00612776, Final residual = 0.00030004, No Iterations 96
time step continuity errors : sum local = 3.81566e-10, global = -1.32406e-13, cumulative = 3.59481e-08
DICPCG:  Solving for p, Initial residual = 0.00249807, Final residual = 9.5002e-07, No Iterations 399
time step continuity errors : sum local = 1.20428e-12, global = -2.81486e-15, cumulative = 3.59481e-08
ExecutionTime = 41.69 s  ClockTime = 42 s

Time = 2.05

Courant Number mean: 0.00699247 max: 0.132275
smoothSolver:  Solving for Ux, Initial residual = 0.000407982, Final residual = 5.26604e-06, No Iterations 4
smoothSolver:  Solving for Uy, Initial residual = 0.00145094, Final residual = 5.80217e-06, No Iterations 4
DICPCG:  Solving for p, Initial residual = 0.006073, Final residual = 0.000303513, No Iterations 95
time step continuity errors : sum local = 3.82907e-10, global = -1.11426e-13, cumulative = 3.5948e-08
DICPCG:  Solving for p, Initial residual = 0.00246275, Final residual = 9.46015e-07, No Iterations 399
time step continuity errors : sum local = 1.18973e-12, global = -2.69964e-15, cumulative = 3.5948e-08
ExecutionTime = 42.64 s  ClockTime = 43 s

Time = 2.1

Courant Number mean: 0.00699158 max: 0.131366
smoothSolver:  Solving for Ux, Initial residual = 0.000398149, Final residual = 5.10447e-06, No Iterations 4
smoothSolver:  Solving for Uy, Initial residual = 0.0014284, Final residual = 5.64689e-06, No Iterations 4
DICPCG:  Solving for p, Initial residual = 0.00603724, Final residual = 0.000300606, No Iterations 95
time step continuity errors : sum local = 3.76267e-10, global = -9.77438e-14, cumulative = 3.59479e-08
DICPCG:  Solving for p, Initial residual = 0.00243651, Final residual = 9.36288e-07, No Iterations 399
time step continuity errors : sum local = 1.1683e-12, global = -2.84315e-15, cumulative = 3.59479e-08
ExecutionTime = 43.58 s  ClockTime = 44 s

Time = 2.15

Courant Number mean: 0.00699071 max: 0.130476
smoothSolver:  Solving for Ux, Initial residual = 0.000388741, Final residual = 4.95108e-06, No Iterations 4
smoothSolver:  Solving for Uy, Initial residual = 0.00140656, Final residual = 5.49892e-06, No Iterations 4
DICPCG:  Solving for p, Initial residual = 0.00593186, Final residual = 0.000295346, No Iterations 95
time step continuity errors : sum local = 3.66807e-10, global = -8.70039e-14, cumulative = 3.59478e-08
DICPCG:  Solving for p, Initial residual = 0.0024009, Final residual = 9.27375e-07, No Iterations 399
time step continuity errors : sum local = 1.14819e-12, global = -2.75434e-15, cumulative = 3.59478e-08
ExecutionTime = 44.52 s  ClockTime = 45 s

Time = 2.2

Courant Number mean: 0.00698985 max: 0.129604
smoothSolver:  Solving for Ux, Initial residual = 0.000379717, Final residual = 9.8806e-06, No Iterations 3
smoothSolver:  Solving for Uy, Initial residual = 0.00138535, Final residual = 5.35697e-06, No Iterations 4
DICPCG:  Solving for p, Initial residual = 0.00682785, Final residual = 0.000335395, No Iterations 110
time step continuity errors : sum local = 4.13315e-10, global = -3.99451e-13, cumulative = 3.59474e-08
DICPCG:  Solving for p, Initial residual = 0.00418938, Final residual = 9.49932e-07, No Iterations 405
time step continuity errors : sum local = 1.16692e-12, global = -1.19409e-14, cumulative = 3.59474e-08
ExecutionTime = 45.51 s  ClockTime = 46 s

Time = 2.25

Courant Number mean: 0.00698903 max: 0.128777
smoothSolver:  Solving for Ux, Initial residual = 0.000367409, Final residual = 9.6841e-06, No Iterations 3
smoothSolver:  Solving for Uy, Initial residual = 0.00134538, Final residual = 5.23659e-06, No Iterations 4
DICPCG:  Solving for p, Initial residual = 0.00665587, Final residual = 0.000326257, No Iterations 99
time step continuity errors : sum local = 3.98051e-10, global = -5.86819e-13, cumulative = 3.59468e-08
DICPCG:  Solving for p, Initial residual = 0.0038473, Final residual = 9.72005e-07, No Iterations 403
time step continuity errors : sum local = 1.18301e-12, global = -1.14561e-14, cumulative = 3.59468e-08
ExecutionTime = 46.46 s  ClockTime = 47 s

Time = 2.3

Courant Number mean: 0.00698821 max: 0.127961
smoothSolver:  Solving for Ux, Initial residual = 0.000359949, Final residual = 9.42686e-06, No Iterations 3
smoothSolver:  Solving for Uy, Initial residual = 0.00132874, Final residual = 5.12009e-06, No Iterations 4
DICPCG:  Solving for p, Initial residual = 0.00662789, Final residual = 0.000328546, No Iterations 100
time step continuity errors : sum local = 3.98185e-10, global = -2.85087e-13, cumulative = 3.59465e-08
DICPCG:  Solving for p, Initial residual = 0.00386303, Final residual = 9.53617e-07, No Iterations 403
time step continuity errors : sum local = 1.15269e-12, global = -1.23909e-14, cumulative = 3.59465e-08
ExecutionTime = 47.41 s  ClockTime = 48 s

Time = 2.35

Courant Number mean: 0.00698741 max: 0.127161
smoothSolver:  Solving for Ux, Initial residual = 0.000352188, Final residual = 9.18767e-06, No Iterations 3
smoothSolver:  Solving for Uy, Initial residual = 0.00130948, Final residual = 4.99703e-06, No Iterations 4
DICPCG:  Solving for p, Initial residual = 0.00654552, Final residual = 0.000323607, No Iterations 100
time step continuity errors : sum local = 3.89319e-10, global = -3.49626e-13, cumulative = 3.59462e-08
DICPCG:  Solving for p, Initial residual = 0.00381468, Final residual = 9.60153e-07, No Iterations 403
time step continuity errors : sum local = 1.1522e-12, global = -1.19446e-14, cumulative = 3.59462e-08
ExecutionTime = 48.37 s  ClockTime = 49 s

Time = 2.4

Courant Number mean: 0.00698661 max: 0.126376
smoothSolver:  Solving for Ux, Initial residual = 0.000344779, Final residual = 8.95582e-06, No Iterations 3
smoothSolver:  Solving for Uy, Initial residual = 0.00129129, Final residual = 4.88066e-06, No Iterations 4
DICPCG:  Solving for p, Initial residual = 0.00643319, Final residual = 0.00031876, No Iterations 100
time step continuity errors : sum local = 3.80785e-10, global = -3.35319e-13, cumulative = 3.59458e-08
DICPCG:  Solving for p, Initial residual = 0.00377027, Final residual = 9.44241e-07, No Iterations 403
time step continuity errors : sum local = 1.12512e-12, global = -1.18292e-14, cumulative = 3.59458e-08
ExecutionTime = 49.33 s  ClockTime = 49 s

Time = 2.45

Courant Number mean: 0.00698583 max: 0.125605
smoothSolver:  Solving for Ux, Initial residual = 0.000337607, Final residual = 8.7331e-06, No Iterations 3
smoothSolver:  Solving for Uy, Initial residual = 0.00127343, Final residual = 4.76907e-06, No Iterations 4
DICPCG:  Solving for p, Initial residual = 0.00631346, Final residual = 0.000309031, No Iterations 101
time step continuity errors : sum local = 3.66565e-10, global = -3.42331e-13, cumulative = 3.59455e-08
DICPCG:  Solving for p, Initial residual = 0.00371753, Final residual = 9.34713e-07, No Iterations 403
time step continuity errors : sum local = 1.10597e-12, global = -1.15663e-14, cumulative = 3.59455e-08
ExecutionTime = 50.29 s  ClockTime = 50 s

Time = 2.5

Courant Number mean: 0.00698505 max: 0.124849
smoothSolver:  Solving for Ux, Initial residual = 0.000330694, Final residual = 8.51864e-06, No Iterations 3
smoothSolver:  Solving for Uy, Initial residual = 0.00125603, Final residual = 4.66129e-06, No Iterations 4
DICPCG:  Solving for p, Initial residual = 0.0063016, Final residual = 0.000314447, No Iterations 100
time step continuity errors : sum local = 3.70423e-10, global = -3.29808e-13, cumulative = 3.59451e-08
DICPCG:  Solving for p, Initial residual = 0.00369774, Final residual = 9.41222e-07, No Iterations 403
time step continuity errors : sum local = 1.10612e-12, global = -1.13506e-14, cumulative = 3.59451e-08
ExecutionTime = 51.24 s  ClockTime = 51 s

Time = 2.55

Courant Number mean: 0.00698429 max: 0.124106
smoothSolver:  Solving for Ux, Initial residual = 0.000323999, Final residual = 8.31237e-06, No Iterations 3
smoothSolver:  Solving for Uy, Initial residual = 0.00123898, Final residual = 9.83596e-06, No Iterations 3
DICPCG:  Solving for p, Initial residual = 0.0061531, Final residual = 0.000304941, No Iterations 102
time step continuity errors : sum local = 3.56806e-10, global = -3.56343e-13, cumulative = 3.59448e-08
DICPCG:  Solving for p, Initial residual = 0.00363151, Final residual = 9.22275e-07, No Iterations 399
time step continuity errors : sum local = 1.07648e-12, global = -2.42168e-15, cumulative = 3.59448e-08
ExecutionTime = 52.18 s  ClockTime = 52 s

Time = 2.6

Courant Number mean: 0.00698354 max: 0.123378
smoothSolver:  Solving for Ux, Initial residual = 0.000317298, Final residual = 8.11453e-06, No Iterations 3
smoothSolver:  Solving for Uy, Initial residual = 0.0012216, Final residual = 9.67142e-06, No Iterations 3
DICPCG:  Solving for p, Initial residual = 0.00610863, Final residual = 0.000299585, No Iterations 100
time step continuity errors : sum local = 3.48164e-10, global = -3.62132e-13, cumulative = 3.59444e-08
DICPCG:  Solving for p, Initial residual = 0.00357119, Final residual = 9.78223e-07, No Iterations 399
time step continuity errors : sum local = 1.1339e-12, global = -4.29714e-15, cumulative = 3.59444e-08
ExecutionTime = 53.1 s  ClockTime = 53 s

Time = 2.65

Courant Number mean: 0.0069828 max: 0.122662
smoothSolver:  Solving for Ux, Initial residual = 0.000311093, Final residual = 7.92413e-06, No Iterations 3
smoothSolver:  Solving for Uy, Initial residual = 0.00120547, Final residual = 9.4706e-06, No Iterations 3
DICPCG:  Solving for p, Initial residual = 0.00600892, Final residual = 0.000295009, No Iterations 100
time step continuity errors : sum local = 3.40578e-10, global = -3.4004e-13, cumulative = 3.59441e-08
DICPCG:  Solving for p, Initial residual = 0.00353813, Final residual = 9.78286e-07, No Iterations 399
time step continuity errors : sum local = 1.12666e-12, global = -3.88096e-15, cumulative = 3.5944e-08
ExecutionTime = 54.03 s  ClockTime = 54 s

Time = 2.7

Courant Number mean: 0.00698206 max: 0.12196
smoothSolver:  Solving for Ux, Initial residual = 0.00030506, Final residual = 7.73996e-06, No Iterations 3
smoothSolver:  Solving for Uy, Initial residual = 0.00118967, Final residual = 9.28434e-06, No Iterations 3
DICPCG:  Solving for p, Initial residual = 0.00595303, Final residual = 0.000293059, No Iterations 100
time step continuity errors : sum local = 3.36141e-10, global = -3.43592e-13, cumulative = 3.59437e-08
DICPCG:  Solving for p, Initial residual = 0.00350136, Final residual = 9.75727e-07, No Iterations 399
time step continuity errors : sum local = 1.11642e-12, global = -3.92379e-15, cumulative = 3.59437e-08
ExecutionTime = 54.95 s  ClockTime = 55 s

Time = 2.75

Courant Number mean: 0.00698134 max: 0.121269
smoothSolver:  Solving for Ux, Initial residual = 0.000299225, Final residual = 7.56284e-06, No Iterations 3
smoothSolver:  Solving for Uy, Initial residual = 0.00117417, Final residual = 9.10126e-06, No Iterations 3
DICPCG:  Solving for p, Initial residual = 0.00587903, Final residual = 0.000289837, No Iterations 100
time step continuity errors : sum local = 3.30289e-10, global = -3.34315e-13, cumulative = 3.59434e-08
DICPCG:  Solving for p, Initial residual = 0.00347204, Final residual = 9.53697e-07, No Iterations 399
time step continuity errors : sum local = 1.08413e-12, global = -3.994e-15, cumulative = 3.59434e-08
ExecutionTime = 55.87 s  ClockTime = 56 s

Time = 2.8

Courant Number mean: 0.00698063 max: 0.120591
smoothSolver:  Solving for Ux, Initial residual = 0.000293573, Final residual = 7.39173e-06, No Iterations 3
smoothSolver:  Solving for Uy, Initial residual = 0.00115909, Final residual = 8.92704e-06, No Iterations 3
DICPCG:  Solving for p, Initial residual = 0.00583972, Final residual = 0.000286297, No Iterations 100
time step continuity errors : sum local = 3.24185e-10, global = -3.29165e-13, cumulative = 3.5943e-08
DICPCG:  Solving for p, Initial residual = 0.00343671, Final residual = 9.46204e-07, No Iterations 399
time step continuity errors : sum local = 1.06892e-12, global = -4.05639e-15, cumulative = 3.5943e-08
ExecutionTime = 56.79 s  ClockTime = 57 s

Time = 2.85

Courant Number mean: 0.00697993 max: 0.119925
smoothSolver:  Solving for Ux, Initial residual = 0.000288097, Final residual = 7.2265e-06, No Iterations 3
smoothSolver:  Solving for Uy, Initial residual = 0.00114432, Final residual = 8.75785e-06, No Iterations 3
DICPCG:  Solving for p, Initial residual = 0.00573432, Final residual = 0.000283992, No Iterations 100
time step continuity errors : sum local = 3.19569e-10, global = -3.24627e-13, cumulative = 3.59427e-08
DICPCG:  Solving for p, Initial residual = 0.00340216, Final residual = 9.30262e-07, No Iterations 399
time step continuity errors : sum local = 1.04433e-12, global = -4.13572e-15, cumulative = 3.59427e-08
ExecutionTime = 57.71 s  ClockTime = 58 s

Time = 2.9

Courant Number mean: 0.00697923 max: 0.11927
smoothSolver:  Solving for Ux, Initial residual = 0.000282791, Final residual = 7.06712e-06, No Iterations 3
smoothSolver:  Solving for Uy, Initial residual = 0.00112984, Final residual = 8.59323e-06, No Iterations 3
DICPCG:  Solving for p, Initial residual = 0.00566576, Final residual = 0.000281863, No Iterations 100
time step continuity errors : sum local = 3.15206e-10, global = -3.19594e-13, cumulative = 3.59424e-08
DICPCG:  Solving for p, Initial residual = 0.00336897, Final residual = 9.21631e-07, No Iterations 399
time step continuity errors : sum local = 1.02828e-12, global = -4.19473e-15, cumulative = 3.59424e-08
ExecutionTime = 58.63 s  ClockTime = 59 s

Time = 2.95

Courant Number mean: 0.00697855 max: 0.118626
smoothSolver:  Solving for Ux, Initial residual = 0.000277649, Final residual = 6.91309e-06, No Iterations 3
smoothSolver:  Solving for Uy, Initial residual = 0.00111571, Final residual = 8.43476e-06, No Iterations 3
DICPCG:  Solving for p, Initial residual = 0.00563164, Final residual = 0.000280774, No Iterations 100
time step continuity errors : sum local = 3.12062e-10, global = -3.14706e-13, cumulative = 3.59421e-08
DICPCG:  Solving for p, Initial residual = 0.00333816, Final residual = 9.81784e-07, No Iterations 398
time step continuity errors : sum local = 1.08869e-12, global = -5.4034e-15, cumulative = 3.59421e-08
ExecutionTime = 59.55 s  ClockTime = 60 s

Time = 3

Courant Number mean: 0.00697787 max: 0.117992
smoothSolver:  Solving for Ux, Initial residual = 0.000272661, Final residual = 6.76427e-06, No Iterations 3
smoothSolver:  Solving for Uy, Initial residual = 0.00110189, Final residual = 8.28229e-06, No Iterations 3
DICPCG:  Solving for p, Initial residual = 0.00551448, Final residual = 0.000268285, No Iterations 101
time step continuity errors : sum local = 2.96378e-10, global = -3.25603e-13, cumulative = 3.59417e-08
DICPCG:  Solving for p, Initial residual = 0.00329463, Final residual = 9.84237e-07, No Iterations 398
time step continuity errors : sum local = 1.08484e-12, global = -5.40181e-15, cumulative = 3.59417e-08
ExecutionTime = 61.16 s  ClockTime = 61 s

Time = 3.05

Courant Number mean: 0.0069772 max: 0.11737
smoothSolver:  Solving for Ux, Initial residual = 0.000267827, Final residual = 6.62032e-06, No Iterations 3
smoothSolver:  Solving for Uy, Initial residual = 0.00108838, Final residual = 8.13339e-06, No Iterations 3
DICPCG:  Solving for p, Initial residual = 0.00545688, Final residual = 0.00026701, No Iterations 101
time step continuity errors : sum local = 2.9322e-10, global = -3.22821e-13, cumulative = 3.59414e-08
DICPCG:  Solving for p, Initial residual = 0.00326508, Final residual = 9.64679e-07, No Iterations 398
time step continuity errors : sum local = 1.05706e-12, global = -5.53538e-15, cumulative = 3.59414e-08
ExecutionTime = 62.09 s  ClockTime = 62 s

Time = 3.1

Courant Number mean: 0.00697654 max: 0.116757
smoothSolver:  Solving for Ux, Initial residual = 0.000263131, Final residual = 6.48113e-06, No Iterations 3
smoothSolver:  Solving for Uy, Initial residual = 0.0010751, Final residual = 7.98948e-06, No Iterations 3
DICPCG:  Solving for p, Initial residual = 0.00542359, Final residual = 0.000264525, No Iterations 101
time step continuity errors : sum local = 2.88804e-10, global = -3.16651e-13, cumulative = 3.59411e-08
DICPCG:  Solving for p, Initial residual = 0.00323423, Final residual = 9.58277e-07, No Iterations 398
time step continuity errors : sum local = 1.04398e-12, global = -5.49508e-15, cumulative = 3.59411e-08
ExecutionTime = 63 s  ClockTime = 63 s

Time = 3.15

Courant Number mean: 0.00697588 max: 0.116155
smoothSolver:  Solving for Ux, Initial residual = 0.00025857, Final residual = 6.34649e-06, No Iterations 3
smoothSolver:  Solving for Uy, Initial residual = 0.00106211, Final residual = 7.84959e-06, No Iterations 3
DICPCG:  Solving for p, Initial residual = 0.00537538, Final residual = 0.000262809, No Iterations 101
time step continuity errors : sum local = 2.85294e-10, global = -3.1393e-13, cumulative = 3.59408e-08
DICPCG:  Solving for p, Initial residual = 0.00320433, Final residual = 9.47408e-07, No Iterations 398
time step continuity errors : sum local = 1.02631e-12, global = -5.51946e-15, cumulative = 3.59408e-08
ExecutionTime = 63.93 s  ClockTime = 64 s

Time = 3.2

Courant Number mean: 0.00697524 max: 0.115811
smoothSolver:  Solving for Ux, Initial residual = 0.000254141, Final residual = 6.21606e-06, No Iterations 3
smoothSolver:  Solving for Uy, Initial residual = 0.00104939, Final residual = 7.71463e-06, No Iterations 3
DICPCG:  Solving for p, Initial residual = 0.0053792, Final residual = 0.000263104, No Iterations 101
time step continuity errors : sum local = 2.84006e-10, global = -3.09866e-13, cumulative = 3.59404e-08
DICPCG:  Solving for p, Initial residual = 0.00318495, Final residual = 9.33623e-07, No Iterations 398
time step continuity errors : sum local = 1.00568e-12, global = -5.50031e-15, cumulative = 3.59404e-08
ExecutionTime = 64.84 s  ClockTime = 65 s

Time = 3.25

Courant Number mean: 0.0069746 max: 0.115628
smoothSolver:  Solving for Ux, Initial residual = 0.000249839, Final residual = 6.08966e-06, No Iterations 3
smoothSolver:  Solving for Uy, Initial residual = 0.00103695, Final residual = 7.58331e-06, No Iterations 3
DICPCG:  Solving for p, Initial residual = 0.00529091, Final residual = 0.000259807, No Iterations 101
time step continuity errors : sum local = 2.78865e-10, global = -3.0435e-13, cumulative = 3.59401e-08
DICPCG:  Solving for p, Initial residual = 0.0031532, Final residual = 9.2442e-07, No Iterations 398
time step continuity errors : sum local = 9.9013e-13, global = -5.34945e-15, cumulative = 3.59401e-08
ExecutionTime = 65.76 s  ClockTime = 66 s

Time = 3.3

Courant Number mean: 0.00697396 max: 0.115443
smoothSolver:  Solving for Ux, Initial residual = 0.000245655, Final residual = 5.96721e-06, No Iterations 3
smoothSolver:  Solving for Uy, Initial residual = 0.00102478, Final residual = 7.45827e-06, No Iterations 3
DICPCG:  Solving for p, Initial residual = 0.00525761, Final residual = 0.000256693, No Iterations 101
time step continuity errors : sum local = 2.73983e-10, global = -2.99948e-13, cumulative = 3.59398e-08
DICPCG:  Solving for p, Initial residual = 0.00312397, Final residual = 9.16611e-07, No Iterations 398
time step continuity errors : sum local = 9.76341e-13, global = -5.44214e-15, cumulative = 3.59398e-08
ExecutionTime = 66.67 s  ClockTime = 67 s

Time = 3.35

Courant Number mean: 0.00697334 max: 0.115256
smoothSolver:  Solving for Ux, Initial residual = 0.00024159, Final residual = 5.84847e-06, No Iterations 3
smoothSolver:  Solving for Uy, Initial residual = 0.00101285, Final residual = 7.33689e-06, No Iterations 3
DICPCG:  Solving for p, Initial residual = 0.00520948, Final residual = 0.000255183, No Iterations 101
time step continuity errors : sum local = 2.70864e-10, global = -2.96418e-13, cumulative = 3.59395e-08
DICPCG:  Solving for p, Initial residual = 0.00309898, Final residual = 9.09429e-07, No Iterations 398
time step continuity errors : sum local = 9.63312e-13, global = -5.40489e-15, cumulative = 3.59395e-08
ExecutionTime = 67.59 s  ClockTime = 68 s

Time = 3.4

Courant Number mean: 0.00697272 max: 0.115069
smoothSolver:  Solving for Ux, Initial residual = 0.000237641, Final residual = 5.73331e-06, No Iterations 3
smoothSolver:  Solving for Uy, Initial residual = 0.00100116, Final residual = 7.2179e-06, No Iterations 3
DICPCG:  Solving for p, Initial residual = 0.00512083, Final residual = 0.000253148, No Iterations 101
time step continuity errors : sum local = 2.67233e-10, global = -2.91625e-13, cumulative = 3.59392e-08
DICPCG:  Solving for p, Initial residual = 0.00306551, Final residual = 9.56703e-07, No Iterations 397
time step continuity errors : sum local = 1.00791e-12, global = -7.06489e-15, cumulative = 3.59392e-08
ExecutionTime = 68.51 s  ClockTime = 69 s

Time = 3.45

Courant Number mean: 0.00697211 max: 0.11488
smoothSolver:  Solving for Ux, Initial residual = 0.000233799, Final residual = 5.62162e-06, No Iterations 3
smoothSolver:  Solving for Uy, Initial residual = 0.00098967, Final residual = 7.10335e-06, No Iterations 3
DICPCG:  Solving for p, Initial residual = 0.00508208, Final residual = 0.000250408, No Iterations 101
time step continuity errors : sum local = 2.62916e-10, global = -2.85834e-13, cumulative = 3.59389e-08
DICPCG:  Solving for p, Initial residual = 0.00303686, Final residual = 9.68744e-07, No Iterations 397
time step continuity errors : sum local = 1.0151e-12, global = -7.0767e-15, cumulative = 3.59389e-08
ExecutionTime = 69.42 s  ClockTime = 70 s

Time = 3.5

Courant Number mean: 0.0069715 max: 0.11469
smoothSolver:  Solving for Ux, Initial residual = 0.000230053, Final residual = 5.51331e-06, No Iterations 3
smoothSolver:  Solving for Uy, Initial residual = 0.000978465, Final residual = 6.99198e-06, No Iterations 3
DICPCG:  Solving for p, Initial residual = 0.00501335, Final residual = 0.000246637, No Iterations 101
time step continuity errors : sum local = 2.57578e-10, global = -2.87457e-13, cumulative = 3.59386e-08
DICPCG:  Solving for p, Initial residual = 0.00300926, Final residual = 9.53133e-07, No Iterations 397
time step continuity errors : sum local = 9.93475e-13, global = -7.00456e-15, cumulative = 3.59386e-08
ExecutionTime = 70.34 s  ClockTime = 71 s

Time = 3.55

Courant Number mean: 0.00697091 max: 0.114498
smoothSolver:  Solving for Ux, Initial residual = 0.000226414, Final residual = 5.40816e-06, No Iterations 3
smoothSolver:  Solving for Uy, Initial residual = 0.000967444, Final residual = 6.88408e-06, No Iterations 3
DICPCG:  Solving for p, Initial residual = 0.0049658, Final residual = 0.000244226, No Iterations 101
time step continuity errors : sum local = 2.5373e-10, global = -2.79657e-13, cumulative = 3.59384e-08
DICPCG:  Solving for p, Initial residual = 0.00298356, Final residual = 9.61005e-07, No Iterations 397
time step continuity errors : sum local = 9.96498e-13, global = -7.01211e-15, cumulative = 3.59383e-08
ExecutionTime = 71.25 s  ClockTime = 71 s

Time = 3.6

Courant Number mean: 0.00697032 max: 0.114306
smoothSolver:  Solving for Ux, Initial residual = 0.000222871, Final residual = 5.30605e-06, No Iterations 3
smoothSolver:  Solving for Uy, Initial residual = 0.000956631, Final residual = 6.77888e-06, No Iterations 3
DICPCG:  Solving for p, Initial residual = 0.00492124, Final residual = 0.000242309, No Iterations 101
time step continuity errors : sum local = 2.50439e-10, global = -2.74579e-13, cumulative = 3.59381e-08
DICPCG:  Solving for p, Initial residual = 0.00295846, Final residual = 9.31451e-07, No Iterations 397
time step continuity errors : sum local = 9.60854e-13, global = -6.85359e-15, cumulative = 3.59381e-08
ExecutionTime = 72.18 s  ClockTime = 72 s

Time = 3.65

Courant Number mean: 0.00696973 max: 0.114113
smoothSolver:  Solving for Ux, Initial residual = 0.000219422, Final residual = 5.20703e-06, No Iterations 3
smoothSolver:  Solving for Uy, Initial residual = 0.000946027, Final residual = 6.67587e-06, No Iterations 3
DICPCG:  Solving for p, Initial residual = 0.00486859, Final residual = 0.00024076, No Iterations 101
time step continuity errors : sum local = 2.47561e-10, global = -2.74703e-13, cumulative = 3.59378e-08
DICPCG:  Solving for p, Initial residual = 0.0029304, Final residual = 9.50161e-07, No Iterations 397
time step continuity errors : sum local = 9.75185e-13, global = -6.89156e-15, cumulative = 3.59378e-08
ExecutionTime = 73.09 s  ClockTime = 73 s

Time = 3.7

Courant Number mean: 0.00696915 max: 0.11392
smoothSolver:  Solving for Ux, Initial residual = 0.000216059, Final residual = 5.11075e-06, No Iterations 3
smoothSolver:  Solving for Uy, Initial residual = 0.000935652, Final residual = 6.57684e-06, No Iterations 3
DICPCG:  Solving for p, Initial residual = 0.00484088, Final residual = 0.000239944, No Iterations 101
time step continuity errors : sum local = 2.45483e-10, global = -2.70124e-13, cumulative = 3.59375e-08
DICPCG:  Solving for p, Initial residual = 0.00290673, Final residual = 9.42153e-07, No Iterations 397
time step continuity errors : sum local = 9.62126e-13, global = -6.82231e-15, cumulative = 3.59375e-08
ExecutionTime = 74.01 s  ClockTime = 74 s

Time = 3.75

Courant Number mean: 0.00696858 max: 0.113725
smoothSolver:  Solving for Ux, Initial residual = 0.00021278, Final residual = 5.01724e-06, No Iterations 3
smoothSolver:  Solving for Uy, Initial residual = 0.000925472, Final residual = 6.48069e-06, No Iterations 3
DICPCG:  Solving for p, Initial residual = 0.00482147, Final residual = 0.000238807, No Iterations 101
time step continuity errors : sum local = 2.43102e-10, global = -2.66263e-13, cumulative = 3.59372e-08
DICPCG:  Solving for p, Initial residual = 0.00288834, Final residual = 9.97517e-07, No Iterations 396
time step continuity errors : sum local = 1.01359e-12, global = -8.32403e-15, cumulative = 3.59372e-08
ExecutionTime = 74.92 s  ClockTime = 75 s

Time = 3.8

Courant Number mean: 0.00696801 max: 0.11353
smoothSolver:  Solving for Ux, Initial residual = 0.000209588, Final residual = 4.92632e-06, No Iterations 3
smoothSolver:  Solving for Uy, Initial residual = 0.000915504, Final residual = 6.38671e-06, No Iterations 3
DICPCG:  Solving for p, Initial residual = 0.00476358, Final residual = 0.000235683, No Iterations 101
time step continuity errors : sum local = 2.38733e-10, global = -2.61028e-13, cumulative = 3.5937e-08
DICPCG:  Solving for p, Initial residual = 0.00286173, Final residual = 9.17205e-07, No Iterations 397
time step continuity errors : sum local = 9.27388e-13, global = -6.58473e-15, cumulative = 3.5937e-08
ExecutionTime = 75.84 s  ClockTime = 76 s

Time = 3.85

Courant Number mean: 0.00696745 max: 0.113334
smoothSolver:  Solving for Ux, Initial residual = 0.000206474, Final residual = 4.83791e-06, No Iterations 3
smoothSolver:  Solving for Uy, Initial residual = 0.000905732, Final residual = 6.29575e-06, No Iterations 3
DICPCG:  Solving for p, Initial residual = 0.00469646, Final residual = 0.000232591, No Iterations 101
time step continuity errors : sum local = 2.34452e-10, global = -2.63878e-13, cumulative = 3.59367e-08
DICPCG:  Solving for p, Initial residual = 0.00283299, Final residual = 9.90922e-07, No Iterations 396
time step continuity errors : sum local = 9.97083e-13, global = -8.23952e-15, cumulative = 3.59367e-08
ExecutionTime = 76.75 s  ClockTime = 77 s

Time = 3.9

Courant Number mean: 0.0069669 max: 0.113138
smoothSolver:  Solving for Ux, Initial residual = 0.000203438, Final residual = 4.75198e-06, No Iterations 3
smoothSolver:  Solving for Uy, Initial residual = 0.000896142, Final residual = 6.20682e-06, No Iterations 3
DICPCG:  Solving for p, Initial residual = 0.00466428, Final residual = 0.000230559, No Iterations 101
time step continuity errors : sum local = 2.31295e-10, global = -2.55545e-13, cumulative = 3.59364e-08
DICPCG:  Solving for p, Initial residual = 0.00281069, Final residual = 9.816e-07, No Iterations 396
time step continuity errors : sum local = 9.83022e-13, global = -7.96793e-15, cumulative = 3.59364e-08
ExecutionTime = 77.67 s  ClockTime = 78 s

Time = 3.95

Courant Number mean: 0.00696635 max: 0.112942
smoothSolver:  Solving for Ux, Initial residual = 0.000200476, Final residual = 4.66837e-06, No Iterations 3
smoothSolver:  Solving for Uy, Initial residual = 0.000886748, Final residual = 6.121e-06, No Iterations 3
DICPCG:  Solving for p, Initial residual = 0.00464773, Final residual = 0.000230053, No Iterations 101
time step continuity errors : sum local = 2.29683e-10, global = -2.5254e-13, cumulative = 3.59362e-08
DICPCG:  Solving for p, Initial residual = 0.00279536, Final residual = 9.74864e-07, No Iterations 396
time step continuity errors : sum local = 9.7154e-13, global = -7.92402e-15, cumulative = 3.59362e-08
ExecutionTime = 78.58 s  ClockTime = 79 s

Time = 4

Courant Number mean: 0.0069658 max: 0.112745
smoothSolver:  Solving for Ux, Initial residual = 0.000197592, Final residual = 4.58707e-06, No Iterations 3
smoothSolver:  Solving for Uy, Initial residual = 0.000877493, Final residual = 6.03644e-06, No Iterations 3
DICPCG:  Solving for p, Initial residual = 0.00456709, Final residual = 0.000227277, No Iterations 101
time step continuity errors : sum local = 2.25821e-10, global = -2.50393e-13, cumulative = 3.59359e-08
DICPCG:  Solving for p, Initial residual = 0.00276103, Final residual = 9.74658e-07, No Iterations 396
time step continuity errors : sum local = 9.66726e-13, global = -7.76486e-15, cumulative = 3.59359e-08
ExecutionTime = 80.18 s  ClockTime = 80 s

Time = 4.05

Courant Number mean: 0.00696526 max: 0.112548
smoothSolver:  Solving for Ux, Initial residual = 0.000194777, Final residual = 4.50785e-06, No Iterations 3
smoothSolver:  Solving for Uy, Initial residual = 0.000868473, Final residual = 5.95484e-06, No Iterations 3
DICPCG:  Solving for p, Initial residual = 0.0045167, Final residual = 0.000225662, No Iterations 101
time step continuity errors : sum local = 2.23161e-10, global = -2.44631e-13, cumulative = 3.59357e-08
DICPCG:  Solving for p, Initial residual = 0.00273735, Final residual = 9.57368e-07, No Iterations 396
time step continuity errors : sum local = 9.45129e-13, global = -7.68576e-15, cumulative = 3.59357e-08
ExecutionTime = 81.09 s  ClockTime = 81 s

Time = 4.1

Courant Number mean: 0.00696473 max: 0.112351
smoothSolver:  Solving for Ux, Initial residual = 0.000192029, Final residual = 9.92705e-06, No Iterations 2
smoothSolver:  Solving for Uy, Initial residual = 0.00085963, Final residual = 5.87493e-06, No Iterations 3
DICPCG:  Solving for p, Initial residual = 0.00641771, Final residual = 0.000319263, No Iterations 129
time step continuity errors : sum local = 3.14263e-10, global = -7.53507e-13, cumulative = 3.59349e-08
DICPCG:  Solving for p, Initial residual = 0.00555231, Final residual = 9.38855e-07, No Iterations 408
time step continuity errors : sum local = 9.22175e-13, global = -5.67153e-15, cumulative = 3.59349e-08
ExecutionTime = 82.06 s  ClockTime = 82 s

Time = 4.15

Courant Number mean: 0.00696422 max: 0.112159
smoothSolver:  Solving for Ux, Initial residual = 0.000185876, Final residual = 9.89974e-06, No Iterations 2
smoothSolver:  Solving for Uy, Initial residual = 0.000829072, Final residual = 5.83692e-06, No Iterations 3
DICPCG:  Solving for p, Initial residual = 0.0063649, Final residual = 0.000303232, No Iterations 104
time step continuity errors : sum local = 2.95999e-10, global = -7.83577e-13, cumulative = 3.59341e-08
DICPCG:  Solving for p, Initial residual = 0.0051702, Final residual = 9.6715e-07, No Iterations 405
time step continuity errors : sum local = 9.43155e-13, global = -4.9507e-15, cumulative = 3.59341e-08
ExecutionTime = 82.99 s  ClockTime = 83 s

Time = 4.2

Courant Number mean: 0.00696371 max: 0.111966
smoothSolver:  Solving for Ux, Initial residual = 0.000183882, Final residual = 9.74679e-06, No Iterations 2
smoothSolver:  Solving for Uy, Initial residual = 0.000823297, Final residual = 5.75686e-06, No Iterations 3
DICPCG:  Solving for p, Initial residual = 0.00631223, Final residual = 0.000298609, No Iterations 105
time step continuity errors : sum local = 2.90435e-10, global = -4.89253e-13, cumulative = 3.59336e-08
DICPCG:  Solving for p, Initial residual = 0.00517669, Final residual = 9.22469e-07, No Iterations 406
time step continuity errors : sum local = 8.96056e-13, global = -6.22935e-16, cumulative = 3.59336e-08
ExecutionTime = 83.93 s  ClockTime = 84 s

Time = 4.25

Courant Number mean: 0.00696321 max: 0.111773
smoothSolver:  Solving for Ux, Initial residual = 0.000181462, Final residual = 9.60767e-06, No Iterations 2
smoothSolver:  Solving for Uy, Initial residual = 0.000815224, Final residual = 5.68294e-06, No Iterations 3
DICPCG:  Solving for p, Initial residual = 0.00623703, Final residual = 0.000294146, No Iterations 105
time step continuity errors : sum local = 2.84796e-10, global = -5.40209e-13, cumulative = 3.59331e-08
DICPCG:  Solving for p, Initial residual = 0.0051305, Final residual = 9.96439e-07, No Iterations 405
time step continuity errors : sum local = 9.6361e-13, global = -9.86583e-16, cumulative = 3.59331e-08
ExecutionTime = 84.86 s  ClockTime = 85 s

Time = 4.3

Courant Number mean: 0.00696272 max: 0.11158
smoothSolver:  Solving for Ux, Initial residual = 0.000179147, Final residual = 9.46762e-06, No Iterations 2
smoothSolver:  Solving for Uy, Initial residual = 0.000807714, Final residual = 5.61493e-06, No Iterations 3
DICPCG:  Solving for p, Initial residual = 0.00621304, Final residual = 0.000291794, No Iterations 105
time step continuity errors : sum local = 2.81316e-10, global = -5.25409e-13, cumulative = 3.59326e-08
DICPCG:  Solving for p, Initial residual = 0.00509972, Final residual = 9.78912e-07, No Iterations 405
time step continuity errors : sum local = 9.42637e-13, global = -8.39271e-16, cumulative = 3.59326e-08
ExecutionTime = 85.78 s  ClockTime = 86 s

Time = 4.35

Courant Number mean: 0.00696222 max: 0.111386
smoothSolver:  Solving for Ux, Initial residual = 0.000176869, Final residual = 9.33032e-06, No Iterations 2
smoothSolver:  Solving for Uy, Initial residual = 0.000800233, Final residual = 5.54703e-06, No Iterations 3
DICPCG:  Solving for p, Initial residual = 0.00618315, Final residual = 0.000290559, No Iterations 105
time step continuity errors : sum local = 2.78917e-10, global = -5.24085e-13, cumulative = 3.5932e-08
DICPCG:  Solving for p, Initial residual = 0.00506986, Final residual = 9.8643e-07, No Iterations 405
time step continuity errors : sum local = 9.45759e-13, global = -6.90931e-16, cumulative = 3.5932e-08
ExecutionTime = 86.71 s  ClockTime = 87 s

Time = 4.4

Courant Number mean: 0.00696173 max: 0.111193
smoothSolver:  Solving for Ux, Initial residual = 0.000174638, Final residual = 9.19534e-06, No Iterations 2
smoothSolver:  Solving for Uy, Initial residual = 0.000792893, Final residual = 5.48117e-06, No Iterations 3
DICPCG:  Solving for p, Initial residual = 0.00608365, Final residual = 0.000288045, No Iterations 105
time step continuity errors : sum local = 2.75334e-10, global = -5.14938e-13, cumulative = 3.59315e-08
DICPCG:  Solving for p, Initial residual = 0.00503306, Final residual = 9.91297e-07, No Iterations 405
time step continuity errors : sum local = 9.46474e-13, global = -7.93426e-16, cumulative = 3.59315e-08
ExecutionTime = 87.65 s  ClockTime = 88 s

Time = 4.45

Courant Number mean: 0.00696125 max: 0.111
smoothSolver:  Solving for Ux, Initial residual = 0.000172455, Final residual = 9.06286e-06, No Iterations 2
smoothSolver:  Solving for Uy, Initial residual = 0.000785612, Final residual = 5.41641e-06, No Iterations 3
DICPCG:  Solving for p, Initial residual = 0.00603665, Final residual = 0.000286464, No Iterations 105
time step continuity errors : sum local = 2.72683e-10, global = -5.16759e-13, cumulative = 3.5931e-08
DICPCG:  Solving for p, Initial residual = 0.00499871, Final residual = 9.65439e-07, No Iterations 405
time step continuity errors : sum local = 9.1795e-13, global = -6.4873e-16, cumulative = 3.5931e-08
ExecutionTime = 88.58 s  ClockTime = 89 s

Time = 4.5

Courant Number mean: 0.00696077 max: 0.110807
smoothSolver:  Solving for Ux, Initial residual = 0.00017031, Final residual = 8.93264e-06, No Iterations 2
smoothSolver:  Solving for Uy, Initial residual = 0.00077851, Final residual = 5.35345e-06, No Iterations 3
DICPCG:  Solving for p, Initial residual = 0.00597569, Final residual = 0.000283645, No Iterations 105
time step continuity errors : sum local = 2.68893e-10, global = -5.07534e-13, cumulative = 3.59305e-08
DICPCG:  Solving for p, Initial residual = 0.00496403, Final residual = 9.79496e-07, No Iterations 405
time step continuity errors : sum local = 9.27536e-13, global = -6.27125e-16, cumulative = 3.59305e-08
ExecutionTime = 89.51 s  ClockTime = 90 s

Time = 4.55

Courant Number mean: 0.00696029 max: 0.110614
smoothSolver:  Solving for Ux, Initial residual = 0.00016821, Final residual = 8.8049e-06, No Iterations 2
smoothSolver:  Solving for Uy, Initial residual = 0.000771495, Final residual = 5.29186e-06, No Iterations 3
DICPCG:  Solving for p, Initial residual = 0.00592932, Final residual = 0.000281588, No Iterations 105
time step continuity errors : sum local = 2.65867e-10, global = -5.02581e-13, cumulative = 3.593e-08
DICPCG:  Solving for p, Initial residual = 0.00492971, Final residual = 9.58227e-07, No Iterations 405
time step continuity errors : sum local = 9.03758e-13, global = -4.65479e-16, cumulative = 3.593e-08
ExecutionTime = 90.43 s  ClockTime = 91 s

Time = 4.6

Courant Number mean: 0.00695982 max: 0.110422
smoothSolver:  Solving for Ux, Initial residual = 0.000166153, Final residual = 8.67969e-06, No Iterations 2
smoothSolver:  Solving for Uy, Initial residual = 0.000764568, Final residual = 5.23146e-06, No Iterations 3
DICPCG:  Solving for p, Initial residual = 0.00589654, Final residual = 0.000280011, No Iterations 105
time step continuity errors : sum local = 2.63329e-10, global = -4.9792e-13, cumulative = 3.59295e-08
DICPCG:  Solving for p, Initial residual = 0.00489874, Final residual = 9.60705e-07, No Iterations 405
time step continuity errors : sum local = 9.02534e-13, global = -4.62031e-16, cumulative = 3.59295e-08
ExecutionTime = 91.37 s  ClockTime = 92 s

Time = 4.65

Courant Number mean: 0.00695935 max: 0.110229
smoothSolver:  Solving for Ux, Initial residual = 0.000164138, Final residual = 8.55695e-06, No Iterations 2
smoothSolver:  Solving for Uy, Initial residual = 0.000757756, Final residual = 5.17241e-06, No Iterations 3
DICPCG:  Solving for p, Initial residual = 0.00583628, Final residual = 0.000277506, No Iterations 105
time step continuity errors : sum local = 2.59955e-10, global = -4.93511e-13, cumulative = 3.5929e-08
DICPCG:  Solving for p, Initial residual = 0.00486225, Final residual = 9.58181e-07, No Iterations 405
time step continuity errors : sum local = 8.96667e-13, global = -2.38247e-16, cumulative = 3.5929e-08
ExecutionTime = 92.29 s  ClockTime = 92 s

Time = 4.7

Courant Number mean: 0.00695889 max: 0.110037
smoothSolver:  Solving for Ux, Initial residual = 0.000162164, Final residual = 8.43663e-06, No Iterations 2
smoothSolver:  Solving for Uy, Initial residual = 0.000751067, Final residual = 5.11438e-06, No Iterations 3
DICPCG:  Solving for p, Initial residual = 0.00582348, Final residual = 0.000277251, No Iterations 105
time step continuity errors : sum local = 2.58707e-10, global = -4.87954e-13, cumulative = 3.59285e-08
DICPCG:  Solving for p, Initial residual = 0.00483479, Final residual = 9.42108e-07, No Iterations 405
time step continuity errors : sum local = 8.7819e-13, global = -2.65005e-16, cumulative = 3.59285e-08
ExecutionTime = 93.23 s  ClockTime = 93 s

Time = 4.75

Courant Number mean: 0.00695843 max: 0.109846
smoothSolver:  Solving for Ux, Initial residual = 0.00016023, Final residual = 8.31871e-06, No Iterations 2
smoothSolver:  Solving for Uy, Initial residual = 0.000744482, Final residual = 5.05803e-06, No Iterations 3
DICPCG:  Solving for p, Initial residual = 0.00577628, Final residual = 0.000274293, No Iterations 105
time step continuity errors : sum local = 2.5495e-10, global = -4.78616e-13, cumulative = 3.5928e-08
DICPCG:  Solving for p, Initial residual = 0.00479965, Final residual = 9.43857e-07, No Iterations 405
time step continuity errors : sum local = 8.76391e-13, global = -9.31907e-17, cumulative = 3.5928e-08
ExecutionTime = 94.16 s  ClockTime = 94 s

Time = 4.8

Courant Number mean: 0.00695797 max: 0.109655
smoothSolver:  Solving for Ux, Initial residual = 0.000158333, Final residual = 8.20287e-06, No Iterations 2
smoothSolver:  Solving for Uy, Initial residual = 0.000738, Final residual = 5.00264e-06, No Iterations 3
DICPCG:  Solving for p, Initial residual = 0.0057186, Final residual = 0.000272354, No Iterations 105
time step continuity errors : sum local = 2.52181e-10, global = -4.78119e-13, cumulative = 3.59275e-08
DICPCG:  Solving for p, Initial residual = 0.00476339, Final residual = 9.53922e-07, No Iterations 405
time step continuity errors : sum local = 8.82414e-13, global = -2.16921e-16, cumulative = 3.59275e-08
ExecutionTime = 95.08 s  ClockTime = 95 s

Time = 4.85

Courant Number mean: 0.00695751 max: 0.109464
smoothSolver:  Solving for Ux, Initial residual = 0.000156475, Final residual = 8.08958e-06, No Iterations 2
smoothSolver:  Solving for Uy, Initial residual = 0.000731609, Final residual = 4.94861e-06, No Iterations 3
DICPCG:  Solving for p, Initial residual = 0.00568573, Final residual = 0.000270968, No Iterations 105
time step continuity errors : sum local = 2.49956e-10, global = -4.68951e-13, cumulative = 3.59271e-08
DICPCG:  Solving for p, Initial residual = 0.00473155, Final residual = 9.32072e-07, No Iterations 405
time step continuity errors : sum local = 8.58956e-13, global = -8.05864e-17, cumulative = 3.59271e-08
ExecutionTime = 96.01 s  ClockTime = 96 s

Time = 4.9

Courant Number mean: 0.00695706 max: 0.109273
smoothSolver:  Solving for Ux, Initial residual = 0.000154655, Final residual = 7.9785e-06, No Iterations 2
smoothSolver:  Solving for Uy, Initial residual = 0.000725353, Final residual = 4.89554e-06, No Iterations 3
DICPCG:  Solving for p, Initial residual = 0.0056561, Final residual = 0.000269105, No Iterations 105
time step continuity errors : sum local = 2.47311e-10, global = -4.67492e-13, cumulative = 3.59266e-08
DICPCG:  Solving for p, Initial residual = 0.00470142, Final residual = 9.21208e-07, No Iterations 405
time step continuity errors : sum local = 8.458e-13, global = 2.37778e-17, cumulative = 3.59266e-08
ExecutionTime = 96.94 s  ClockTime = 97 s

Time = 4.95

Courant Number mean: 0.00695662 max: 0.109083
smoothSolver:  Solving for Ux, Initial residual = 0.000152869, Final residual = 7.86961e-06, No Iterations 2
smoothSolver:  Solving for Uy, Initial residual = 0.000719166, Final residual = 4.84375e-06, No Iterations 3
DICPCG:  Solving for p, Initial residual = 0.00560564, Final residual = 0.000267629, No Iterations 105
time step continuity errors : sum local = 2.4505e-10, global = -4.63917e-13, cumulative = 3.59261e-08
DICPCG:  Solving for p, Initial residual = 0.00467031, Final residual = 9.19872e-07, No Iterations 405
time step continuity errors : sum local = 8.41469e-13, global = 3.8379e-17, cumulative = 3.59261e-08
ExecutionTime = 97.88 s  ClockTime = 98 s

Time = 5

Courant Number mean: 0.00695617 max: 0.108894
smoothSolver:  Solving for Ux, Initial residual = 0.000151118, Final residual = 7.76311e-06, No Iterations 2
smoothSolver:  Solving for Uy, Initial residual = 0.00071306, Final residual = 4.79292e-06, No Iterations 3
DICPCG:  Solving for p, Initial residual = 0.00557689, Final residual = 0.000265951, No Iterations 105
time step continuity errors : sum local = 2.42628e-10, global = -4.56147e-13, cumulative = 3.59257e-08
DICPCG:  Solving for p, Initial residual = 0.00463959, Final residual = 9.95935e-07, No Iterations 404
time step continuity errors : sum local = 9.0777e-13, global = -6.67408e-16, cumulative = 3.59257e-08
ExecutionTime = 99.5 s  ClockTime = 100 s

Time = 5.05

Courant Number mean: 0.00695573 max: 0.108705
smoothSolver:  Solving for Ux, Initial residual = 0.000149402, Final residual = 7.6586e-06, No Iterations 2
smoothSolver:  Solving for Uy, Initial residual = 0.000707073, Final residual = 4.74305e-06, No Iterations 3
DICPCG:  Solving for p, Initial residual = 0.00554573, Final residual = 0.000264995, No Iterations 105
time step continuity errors : sum local = 2.40875e-10, global = -4.52711e-13, cumulative = 3.59252e-08
DICPCG:  Solving for p, Initial residual = 0.00460662, Final residual = 9.93467e-07, No Iterations 404
time step continuity errors : sum local = 9.0217e-13, global = -6.07645e-16, cumulative = 3.59252e-08
ExecutionTime = 100.42 s  ClockTime = 101 s

Time = 5.1

Courant Number mean: 0.0069553 max: 0.108516
smoothSolver:  Solving for Ux, Initial residual = 0.00014772, Final residual = 7.55624e-06, No Iterations 2
smoothSolver:  Solving for Uy, Initial residual = 0.000701181, Final residual = 4.69457e-06, No Iterations 3
DICPCG:  Solving for p, Initial residual = 0.00546469, Final residual = 0.000261973, No Iterations 105
time step continuity errors : sum local = 2.37259e-10, global = -4.47675e-13, cumulative = 3.59248e-08
DICPCG:  Solving for p, Initial residual = 0.00457295, Final residual = 9.96215e-07, No Iterations 404
time step continuity errors : sum local = 9.01403e-13, global = -5.38706e-16, cumulative = 3.59248e-08
ExecutionTime = 101.35 s  ClockTime = 102 s

Time = 5.15

Courant Number mean: 0.00695487 max: 0.108328
smoothSolver:  Solving for Ux, Initial residual = 0.000146072, Final residual = 7.45575e-06, No Iterations 2
smoothSolver:  Solving for Uy, Initial residual = 0.0006954, Final residual = 4.64659e-06, No Iterations 3
DICPCG:  Solving for p, Initial residual = 0.00540196, Final residual = 0.000259297, No Iterations 105
time step continuity errors : sum local = 2.33999e-10, global = -4.44003e-13, cumulative = 3.59243e-08
DICPCG:  Solving for p, Initial residual = 0.00454109, Final residual = 9.79684e-07, No Iterations 404
time step continuity errors : sum local = 8.83317e-13, global = -5.53855e-16, cumulative = 3.59243e-08
ExecutionTime = 102.29 s  ClockTime = 102 s

Time = 5.2

Courant Number mean: 0.00695444 max: 0.108141
smoothSolver:  Solving for Ux, Initial residual = 0.000144454, Final residual = 7.35734e-06, No Iterations 2
smoothSolver:  Solving for Uy, Initial residual = 0.000689688, Final residual = 4.59951e-06, No Iterations 3
DICPCG:  Solving for p, Initial residual = 0.00536882, Final residual = 0.000257665, No Iterations 105
time step continuity errors : sum local = 2.31713e-10, global = -4.39222e-13, cumulative = 3.59239e-08
DICPCG:  Solving for p, Initial residual = 0.00450876, Final residual = 9.74808e-07, No Iterations 404
time step continuity errors : sum local = 8.75873e-13, global = -5.11842e-16, cumulative = 3.59239e-08
ExecutionTime = 103.21 s  ClockTime = 103 s

Time = 5.25

Courant Number mean: 0.00695401 max: 0.107954
smoothSolver:  Solving for Ux, Initial residual = 0.000142867, Final residual = 7.26077e-06, No Iterations 2
smoothSolver:  Solving for Uy, Initial residual = 0.00068408, Final residual = 4.55362e-06, No Iterations 3
DICPCG:  Solving for p, Initial residual = 0.00534195, Final residual = 0.000255918, No Iterations 105
time step continuity errors : sum local = 2.29349e-10, global = -4.35252e-13, cumulative = 3.59235e-08
DICPCG:  Solving for p, Initial residual = 0.00447983, Final residual = 9.87706e-07, No Iterations 404
time step continuity errors : sum local = 8.84411e-13, global = -5.01527e-16, cumulative = 3.59235e-08
ExecutionTime = 104.14 s  ClockTime = 104 s

Time = 5.3

Courant Number mean: 0.00695359 max: 0.107768
smoothSolver:  Solving for Ux, Initial residual = 0.000141311, Final residual = 7.1662e-06, No Iterations 2
smoothSolver:  Solving for Uy, Initial residual = 0.000678558, Final residual = 4.50861e-06, No Iterations 3
DICPCG:  Solving for p, Initial residual = 0.00531817, Final residual = 0.000254616, No Iterations 105
time step continuity errors : sum local = 2.27406e-10, global = -4.33722e-13, cumulative = 3.5923e-08
DICPCG:  Solving for p, Initial residual = 0.00445133, Final residual = 9.7136e-07, No Iterations 404
time step continuity errors : sum local = 8.66847e-13, global = -3.16931e-16, cumulative = 3.5923e-08
ExecutionTime = 105.07 s  ClockTime = 105 s

Time = 5.35

Courant Number mean: 0.00695317 max: 0.107582
smoothSolver:  Solving for Ux, Initial residual = 0.000139786, Final residual = 7.07343e-06, No Iterations 2
smoothSolver:  Solving for Uy, Initial residual = 0.000673125, Final residual = 4.46408e-06, No Iterations 3
DICPCG:  Solving for p, Initial residual = 0.00529372, Final residual = 0.000253785, No Iterations 105
time step continuity errors : sum local = 2.25903e-10, global = -4.20846e-13, cumulative = 3.59226e-08
DICPCG:  Solving for p, Initial residual = 0.00442183, Final residual = 9.66609e-07, No Iterations 404
time step continuity errors : sum local = 8.59704e-13, global = -3.09175e-16, cumulative = 3.59226e-08
ExecutionTime = 106.01 s  ClockTime = 106 s

Time = 5.4

Courant Number mean: 0.00695275 max: 0.107396
smoothSolver:  Solving for Ux, Initial residual = 0.000138288, Final residual = 6.98248e-06, No Iterations 2
smoothSolver:  Solving for Uy, Initial residual = 0.000667781, Final residual = 4.42039e-06, No Iterations 3
DICPCG:  Solving for p, Initial residual = 0.00526745, Final residual = 0.000252529, No Iterations 105
time step continuity errors : sum local = 2.24028e-10, global = -4.22262e-13, cumulative = 3.59222e-08
DICPCG:  Solving for p, Initial residual = 0.00438981, Final residual = 9.64775e-07, No Iterations 404
time step continuity errors : sum local = 8.55175e-13, global = -3.94719e-16, cumulative = 3.59222e-08
ExecutionTime = 106.94 s  ClockTime = 107 s

Time = 5.45

Courant Number mean: 0.00695234 max: 0.107212
smoothSolver:  Solving for Ux, Initial residual = 0.00013682, Final residual = 6.89321e-06, No Iterations 2
smoothSolver:  Solving for Uy, Initial residual = 0.000662527, Final residual = 4.37792e-06, No Iterations 3
[...]
time step continuity errors : sum local = 5.59782e-13, global = 1.74006e-15, cumulative = 3.56484e-08
ExecutionTime = 677.84 s  ClockTime = 679 s

Time = 38.7

Courant Number mean: 0.00685096 max: 0.0728989
smoothSolver:  Solving for Ux, Initial residual = 2.244e-05, Final residual = 1.59625e-06, No Iterations 1
smoothSolver:  Solving for Uy, Initial residual = 0.000149587, Final residual = 5.17414e-06, No Iterations 1
DICPCG:  Solving for p, Initial residual = 0.00189651, Final residual = 9.38903e-05, No Iterations 106
time step continuity errors : sum local = 5.26463e-11, global = -1.18942e-13, cumulative = 3.56483e-08
DICPCG:  Solving for p, Initial residual = 0.00187099, Final residual = 9.54165e-07, No Iterations 281
time step continuity errors : sum local = 5.34904e-13, global = -6.82647e-14, cumulative = 3.56482e-08
ExecutionTime = 678.55 s  ClockTime = 679 s

Time = 38.75

Courant Number mean: 0.00685087 max: 0.0728714
smoothSolver:  Solving for Ux, Initial residual = 2.24175e-05, Final residual = 1.5937e-06, No Iterations 1
smoothSolver:  Solving for Uy, Initial residual = 0.000149458, Final residual = 5.16618e-06, No Iterations 1
DICPCG:  Solving for p, Initial residual = 0.00188106, Final residual = 9.26884e-05, No Iterations 106
time step continuity errors : sum local = 5.19564e-11, global = -2.91486e-13, cumulative = 3.5648e-08
DICPCG:  Solving for p, Initial residual = 0.00186757, Final residual = 9.69895e-07, No Iterations 381
time step continuity errors : sum local = 5.43566e-13, global = 1.55717e-15, cumulative = 3.5648e-08
ExecutionTime = 679.42 s  ClockTime = 680 s

Time = 38.8

Courant Number mean: 0.00685079 max: 0.072844
smoothSolver:  Solving for Ux, Initial residual = 2.23979e-05, Final residual = 1.59116e-06, No Iterations 1
smoothSolver:  Solving for Uy, Initial residual = 0.000149325, Final residual = 5.15753e-06, No Iterations 1
DICPCG:  Solving for p, Initial residual = 0.00187652, Final residual = 9.25841e-05, No Iterations 106
time step continuity errors : sum local = 5.18934e-11, global = -1.1489e-13, cumulative = 3.56478e-08
DICPCG:  Solving for p, Initial residual = 0.0018647, Final residual = 9.99154e-07, No Iterations 280
time step continuity errors : sum local = 5.59907e-13, global = -6.36578e-14, cumulative = 3.56478e-08
ExecutionTime = 680.12 s  ClockTime = 681 s

Time = 38.85

Courant Number mean: 0.00685071 max: 0.0728166
smoothSolver:  Solving for Ux, Initial residual = 2.23758e-05, Final residual = 1.58867e-06, No Iterations 1
smoothSolver:  Solving for Uy, Initial residual = 0.000149192, Final residual = 5.14957e-06, No Iterations 1
DICPCG:  Solving for p, Initial residual = 0.00187432, Final residual = 9.24357e-05, No Iterations 106
time step continuity errors : sum local = 5.17949e-11, global = -2.81972e-13, cumulative = 3.56475e-08
DICPCG:  Solving for p, Initial residual = 0.00186301, Final residual = 9.93707e-07, No Iterations 380
time step continuity errors : sum local = 5.56702e-13, global = 1.70528e-15, cumulative = 3.56475e-08
ExecutionTime = 680.99 s  ClockTime = 682 s

Time = 38.9

Courant Number mean: 0.00685063 max: 0.0727893
smoothSolver:  Solving for Ux, Initial residual = 2.23562e-05, Final residual = 1.58614e-06, No Iterations 1
smoothSolver:  Solving for Uy, Initial residual = 0.000149058, Final residual = 5.14097e-06, No Iterations 1
DICPCG:  Solving for p, Initial residual = 0.00187435, Final residual = 9.26255e-05, No Iterations 106
time step continuity errors : sum local = 5.18967e-11, global = -1.19487e-13, cumulative = 3.56474e-08
DICPCG:  Solving for p, Initial residual = 0.00186024, Final residual = 9.45877e-07, No Iterations 281
time step continuity errors : sum local = 5.29848e-13, global = -6.6543e-14, cumulative = 3.56473e-08
ExecutionTime = 681.69 s  ClockTime = 683 s

Time = 38.95

Courant Number mean: 0.00685055 max: 0.0727619
smoothSolver:  Solving for Ux, Initial residual = 2.23342e-05, Final residual = 1.58366e-06, No Iterations 1
smoothSolver:  Solving for Uy, Initial residual = 0.000148925, Final residual = 5.13301e-06, No Iterations 1
DICPCG:  Solving for p, Initial residual = 0.00187214, Final residual = 9.21668e-05, No Iterations 106
time step continuity errors : sum local = 5.16242e-11, global = -2.87993e-13, cumulative = 3.5647e-08
DICPCG:  Solving for p, Initial residual = 0.00185759, Final residual = 9.92037e-07, No Iterations 380
time step continuity errors : sum local = 5.55547e-13, global = 1.73393e-15, cumulative = 3.5647e-08
ExecutionTime = 682.56 s  ClockTime = 683 s

Time = 39

Courant Number mean: 0.00685047 max: 0.0727346
smoothSolver:  Solving for Ux, Initial residual = 2.23147e-05, Final residual = 1.58114e-06, No Iterations 1
smoothSolver:  Solving for Uy, Initial residual = 0.00014879, Final residual = 5.12437e-06, No Iterations 1
DICPCG:  Solving for p, Initial residual = 0.00186989, Final residual = 9.22867e-05, No Iterations 106
time step continuity errors : sum local = 5.16868e-11, global = -1.15439e-13, cumulative = 3.56469e-08
DICPCG:  Solving for p, Initial residual = 0.00185488, Final residual = 9.92774e-07, No Iterations 280
time step continuity errors : sum local = 5.55902e-13, global = -6.45762e-14, cumulative = 3.56468e-08
ExecutionTime = 683.96 s  ClockTime = 685 s

Time = 39.05

Courant Number mean: 0.00685039 max: 0.0727074
smoothSolver:  Solving for Ux, Initial residual = 2.22928e-05, Final residual = 1.57867e-06, No Iterations 1
smoothSolver:  Solving for Uy, Initial residual = 0.000148659, Final residual = 5.11639e-06, No Iterations 1
DICPCG:  Solving for p, Initial residual = 0.00186519, Final residual = 9.18481e-05, No Iterations 106
time step continuity errors : sum local = 5.14259e-11, global = -2.82611e-13, cumulative = 3.56466e-08
DICPCG:  Solving for p, Initial residual = 0.00185316, Final residual = 9.9751e-07, No Iterations 380
time step continuity errors : sum local = 5.58401e-13, global = 1.68686e-15, cumulative = 3.56466e-08
ExecutionTime = 684.83 s  ClockTime = 686 s

Time = 39.1

Courant Number mean: 0.00685031 max: 0.0726802
smoothSolver:  Solving for Ux, Initial residual = 2.22734e-05, Final residual = 1.57616e-06, No Iterations 1
smoothSolver:  Solving for Uy, Initial residual = 0.000148526, Final residual = 5.10791e-06, No Iterations 1
DICPCG:  Solving for p, Initial residual = 0.00186305, Final residual = 9.18021e-05, No Iterations 106
time step continuity errors : sum local = 5.13962e-11, global = -1.17427e-13, cumulative = 3.56464e-08
DICPCG:  Solving for p, Initial residual = 0.00185057, Final residual = 9.8829e-07, No Iterations 280
time step continuity errors : sum local = 5.53187e-13, global = -6.64011e-14, cumulative = 3.56464e-08
ExecutionTime = 685.53 s  ClockTime = 686 s

Time = 39.15

Courant Number mean: 0.00685023 max: 0.072653
smoothSolver:  Solving for Ux, Initial residual = 2.22516e-05, Final residual = 1.57371e-06, No Iterations 1
smoothSolver:  Solving for Uy, Initial residual = 0.000148395, Final residual = 5.10011e-06, No Iterations 1
DICPCG:  Solving for p, Initial residual = 0.00186039, Final residual = 9.15116e-05, No Iterations 106
time step continuity errors : sum local = 5.12188e-11, global = -2.85309e-13, cumulative = 3.56461e-08
DICPCG:  Solving for p, Initial residual = 0.00184828, Final residual = 9.87794e-07, No Iterations 380
time step continuity errors : sum local = 5.52761e-13, global = 1.73818e-15, cumulative = 3.56461e-08
ExecutionTime = 686.39 s  ClockTime = 687 s

Time = 39.2

Courant Number mean: 0.00685015 max: 0.0726259
smoothSolver:  Solving for Ux, Initial residual = 2.22323e-05, Final residual = 1.57121e-06, No Iterations 1
smoothSolver:  Solving for Uy, Initial residual = 0.000148263, Final residual = 5.09164e-06, No Iterations 1
DICPCG:  Solving for p, Initial residual = 0.00185907, Final residual = 9.16685e-05, No Iterations 106
time step continuity errors : sum local = 5.1303e-11, global = -1.15044e-13, cumulative = 3.5646e-08
DICPCG:  Solving for p, Initial residual = 0.00184586, Final residual = 9.94544e-07, No Iterations 280
time step continuity errors : sum local = 5.56489e-13, global = -6.49561e-14, cumulative = 3.56459e-08
ExecutionTime = 687.1 s  ClockTime = 688 s

Time = 39.25

Courant Number mean: 0.00685007 max: 0.0725988
smoothSolver:  Solving for Ux, Initial residual = 2.22106e-05, Final residual = 1.56877e-06, No Iterations 1
smoothSolver:  Solving for Uy, Initial residual = 0.000148133, Final residual = 5.0839e-06, No Iterations 1
DICPCG:  Solving for p, Initial residual = 0.00186268, Final residual = 9.18537e-05, No Iterations 106
time step continuity errors : sum local = 5.13924e-11, global = -2.82006e-13, cumulative = 3.56456e-08
DICPCG:  Solving for p, Initial residual = 0.0018444, Final residual = 9.96745e-07, No Iterations 380
time step continuity errors : sum local = 5.57579e-13, global = 1.66233e-15, cumulative = 3.56456e-08
ExecutionTime = 687.96 s  ClockTime = 689 s

Time = 39.3

Courant Number mean: 0.00684999 max: 0.0725717
smoothSolver:  Solving for Ux, Initial residual = 2.21914e-05, Final residual = 1.56628e-06, No Iterations 1
smoothSolver:  Solving for Uy, Initial residual = 0.000148002, Final residual = 5.0755e-06, No Iterations 1
DICPCG:  Solving for p, Initial residual = 0.00185925, Final residual = 9.17672e-05, No Iterations 106
time step continuity errors : sum local = 5.13403e-11, global = -1.15567e-13, cumulative = 3.56455e-08
DICPCG:  Solving for p, Initial residual = 0.00184155, Final residual = 9.89454e-07, No Iterations 280
time step continuity errors : sum local = 5.53446e-13, global = -6.45192e-14, cumulative = 3.56455e-08
ExecutionTime = 688.67 s  ClockTime = 690 s

Time = 39.35

Courant Number mean: 0.00684991 max: 0.0725447
smoothSolver:  Solving for Ux, Initial residual = 2.217e-05, Final residual = 1.56386e-06, No Iterations 1
smoothSolver:  Solving for Uy, Initial residual = 0.00014787, Final residual = 5.06773e-06, No Iterations 1
DICPCG:  Solving for p, Initial residual = 0.00186598, Final residual = 9.2519e-05, No Iterations 106
time step continuity errors : sum local = 5.17461e-11, global = -2.78521e-13, cumulative = 3.56452e-08
DICPCG:  Solving for p, Initial residual = 0.00184131, Final residual = 9.87332e-07, No Iterations 380
time step continuity errors : sum local = 5.52113e-13, global = 1.6644e-15, cumulative = 3.56452e-08
ExecutionTime = 689.54 s  ClockTime = 690 s

Time = 39.4

Courant Number mean: 0.00684983 max: 0.0725177
smoothSolver:  Solving for Ux, Initial residual = 2.21513e-05, Final residual = 1.56141e-06, No Iterations 1
smoothSolver:  Solving for Uy, Initial residual = 0.000147734, Final residual = 5.05933e-06, No Iterations 1
DICPCG:  Solving for p, Initial residual = 0.00186598, Final residual = 9.32118e-05, No Iterations 106
time step continuity errors : sum local = 5.21289e-11, global = -1.19312e-13, cumulative = 3.56451e-08
DICPCG:  Solving for p, Initial residual = 0.00183965, Final residual = 9.41005e-07, No Iterations 281
time step continuity errors : sum local = 5.26145e-13, global = -6.74194e-14, cumulative = 3.5645e-08
ExecutionTime = 690.25 s  ClockTime = 691 s

Time = 39.45

Courant Number mean: 0.00684975 max: 0.0724907
smoothSolver:  Solving for Ux, Initial residual = 2.21293e-05, Final residual = 1.55899e-06, No Iterations 1
smoothSolver:  Solving for Uy, Initial residual = 0.000147609, Final residual = 5.05174e-06, No Iterations 1
DICPCG:  Solving for p, Initial residual = 0.0018525, Final residual = 9.10581e-05, No Iterations 106
time step continuity errors : sum local = 5.09094e-11, global = -2.86459e-13, cumulative = 3.56447e-08
DICPCG:  Solving for p, Initial residual = 0.00183467, Final residual = 9.50446e-07, No Iterations 381
time step continuity errors : sum local = 5.3128e-13, global = 1.50763e-15, cumulative = 3.56447e-08
ExecutionTime = 691.12 s  ClockTime = 692 s

Time = 39.5

Courant Number mean: 0.00684967 max: 0.0724638
smoothSolver:  Solving for Ux, Initial residual = 2.21103e-05, Final residual = 1.55651e-06, No Iterations 1
smoothSolver:  Solving for Uy, Initial residual = 0.000147479, Final residual = 5.04348e-06, No Iterations 1
DICPCG:  Solving for p, Initial residual = 0.00185593, Final residual = 9.16262e-05, No Iterations 106
time step continuity errors : sum local = 5.12236e-11, global = -1.09598e-13, cumulative = 3.56446e-08
DICPCG:  Solving for p, Initial residual = 0.00183252, Final residual = 9.78271e-07, No Iterations 280
time step continuity errors : sum local = 5.46793e-13, global = -6.15904e-14, cumulative = 3.56445e-08
ExecutionTime = 691.82 s  ClockTime = 693 s

Time = 39.55

Courant Number mean: 0.00684959 max: 0.0724369
smoothSolver:  Solving for Ux, Initial residual = 2.20891e-05, Final residual = 1.55411e-06, No Iterations 1
smoothSolver:  Solving for Uy, Initial residual = 0.000147349, Final residual = 5.03593e-06, No Iterations 1
DICPCG:  Solving for p, Initial residual = 0.00185699, Final residual = 9.2163e-05, No Iterations 106
time step continuity errors : sum local = 5.15087e-11, global = -2.78895e-13, cumulative = 3.56443e-08
DICPCG:  Solving for p, Initial residual = 0.00183159, Final residual = 9.48165e-07, No Iterations 381
time step continuity errors : sum local = 5.29811e-13, global = 1.47972e-15, cumulative = 3.56443e-08
ExecutionTime = 692.69 s  ClockTime = 694 s

Time = 39.6

Courant Number mean: 0.00684951 max: 0.0724101
smoothSolver:  Solving for Ux, Initial residual = 2.20696e-05, Final residual = 1.55166e-06, No Iterations 1
smoothSolver:  Solving for Uy, Initial residual = 0.000147222, Final residual = 5.02745e-06, No Iterations 1
DICPCG:  Solving for p, Initial residual = 0.00185046, Final residual = 9.12664e-05, No Iterations 106
time step continuity errors : sum local = 5.10035e-11, global = -1.17427e-13, cumulative = 3.56441e-08
DICPCG:  Solving for p, Initial residual = 0.00182827, Final residual = 9.89815e-07, No Iterations 280
time step continuity errors : sum local = 5.53039e-13, global = -6.64733e-14, cumulative = 3.56441e-08
ExecutionTime = 693.4 s  ClockTime = 694 s

Time = 39.65

Courant Number mean: 0.00684943 max: 0.0723833
smoothSolver:  Solving for Ux, Initial residual = 2.20484e-05, Final residual = 1.54929e-06, No Iterations 1
smoothSolver:  Solving for Uy, Initial residual = 0.000147093, Final residual = 5.01991e-06, No Iterations 1
DICPCG:  Solving for p, Initial residual = 0.0018491, Final residual = 9.09095e-05, No Iterations 106
time step continuity errors : sum local = 5.07896e-11, global = -2.83012e-13, cumulative = 3.56438e-08
DICPCG:  Solving for p, Initial residual = 0.00182624, Final residual = 9.81006e-07, No Iterations 380
time step continuity errors : sum local = 5.47965e-13, global = 1.65099e-15, cumulative = 3.56438e-08
ExecutionTime = 694.28 s  ClockTime = 695 s

Time = 39.7

Courant Number mean: 0.00684935 max: 0.0723565
smoothSolver:  Solving for Ux, Initial residual = 2.20294e-05, Final residual = 1.54683e-06, No Iterations 1
smoothSolver:  Solving for Uy, Initial residual = 0.000146965, Final residual = 5.01173e-06, No Iterations 1
DICPCG:  Solving for p, Initial residual = 0.00184013, Final residual = 9.05689e-05, No Iterations 106
time step continuity errors : sum local = 5.05954e-11, global = -1.1226e-13, cumulative = 3.56437e-08
DICPCG:  Solving for p, Initial residual = 0.00182311, Final residual = 9.78174e-07, No Iterations 280
time step continuity errors : sum local = 5.46333e-13, global = -6.34797e-14, cumulative = 3.56436e-08
ExecutionTime = 694.97 s  ClockTime = 696 s

Time = 39.75

Courant Number mean: 0.00684927 max: 0.0723298
smoothSolver:  Solving for Ux, Initial residual = 2.20082e-05, Final residual = 1.54445e-06, No Iterations 1
smoothSolver:  Solving for Uy, Initial residual = 0.000146837, Final residual = 5.00411e-06, No Iterations 1
DICPCG:  Solving for p, Initial residual = 0.00183987, Final residual = 9.07386e-05, No Iterations 106
time step continuity errors : sum local = 5.06753e-11, global = -2.77077e-13, cumulative = 3.56433e-08
DICPCG:  Solving for p, Initial residual = 0.00182153, Final residual = 9.7449e-07, No Iterations 380
time step continuity errors : sum local = 5.44121e-13, global = 1.63337e-15, cumulative = 3.56433e-08
ExecutionTime = 695.84 s  ClockTime = 697 s

Time = 39.8

Courant Number mean: 0.00684919 max: 0.072303
smoothSolver:  Solving for Ux, Initial residual = 2.19894e-05, Final residual = 1.54205e-06, No Iterations 1
smoothSolver:  Solving for Uy, Initial residual = 0.000146706, Final residual = 4.99579e-06, No Iterations 1
DICPCG:  Solving for p, Initial residual = 0.00183626, Final residual = 9.04982e-05, No Iterations 106
time step continuity errors : sum local = 5.05365e-11, global = -1.1479e-13, cumulative = 3.56432e-08
DICPCG:  Solving for p, Initial residual = 0.00181846, Final residual = 9.82343e-07, No Iterations 280
time step continuity errors : sum local = 5.48451e-13, global = -6.54552e-14, cumulative = 3.56432e-08
ExecutionTime = 696.55 s  ClockTime = 697 s

Time = 39.85

Courant Number mean: 0.00684911 max: 0.0722764
smoothSolver:  Solving for Ux, Initial residual = 2.19684e-05, Final residual = 1.53968e-06, No Iterations 1
smoothSolver:  Solving for Uy, Initial residual = 0.000146579, Final residual = 4.98827e-06, No Iterations 1
DICPCG:  Solving for p, Initial residual = 0.00183615, Final residual = 9.10552e-05, No Iterations 106
time step continuity errors : sum local = 5.08334e-11, global = -2.80063e-13, cumulative = 3.56429e-08
DICPCG:  Solving for p, Initial residual = 0.00181742, Final residual = 9.66677e-07, No Iterations 380
time step continuity errors : sum local = 5.39569e-13, global = 1.6565e-15, cumulative = 3.56429e-08
ExecutionTime = 697.41 s  ClockTime = 698 s

Time = 39.9

Courant Number mean: 0.00684903 max: 0.0722497
smoothSolver:  Solving for Ux, Initial residual = 2.19499e-05, Final residual = 1.53729e-06, No Iterations 1
smoothSolver:  Solving for Uy, Initial residual = 0.000146448, Final residual = 4.9801e-06, No Iterations 1
DICPCG:  Solving for p, Initial residual = 0.00183748, Final residual = 9.1014e-05, No Iterations 106
time step continuity errors : sum local = 5.08068e-11, global = -1.12201e-13, cumulative = 3.56428e-08
DICPCG:  Solving for p, Initial residual = 0.00181483, Final residual = 9.80512e-07, No Iterations 280
time step continuity errors : sum local = 5.47237e-13, global = -6.53468e-14, cumulative = 3.56427e-08
ExecutionTime = 698.12 s  ClockTime = 699 s

Time = 39.95

Courant Number mean: 0.00684895 max: 0.0722231
smoothSolver:  Solving for Ux, Initial residual = 2.19287e-05, Final residual = 1.53493e-06, No Iterations 1
smoothSolver:  Solving for Uy, Initial residual = 0.000146325, Final residual = 4.97265e-06, No Iterations 1
DICPCG:  Solving for p, Initial residual = 0.0018431, Final residual = 9.1039e-05, No Iterations 106
time step continuity errors : sum local = 5.08053e-11, global = -2.79194e-13, cumulative = 3.56424e-08
DICPCG:  Solving for p, Initial residual = 0.00181392, Final residual = 9.65939e-07, No Iterations 380
time step continuity errors : sum local = 5.38942e-13, global = 1.67688e-15, cumulative = 3.56424e-08
ExecutionTime = 698.99 s  ClockTime = 700 s

Time = 40

Courant Number mean: 0.00684887 max: 0.0721966
smoothSolver:  Solving for Ux, Initial residual = 2.19098e-05, Final residual = 1.53249e-06, No Iterations 1
smoothSolver:  Solving for Uy, Initial residual = 0.000146202, Final residual = 4.96466e-06, No Iterations 1
DICPCG:  Solving for p, Initial residual = 0.00182571, Final residual = 8.98677e-05, No Iterations 106
time step continuity errors : sum local = 5.01468e-11, global = -1.12152e-13, cumulative = 3.56423e-08
DICPCG:  Solving for p, Initial residual = 0.00180978, Final residual = 9.71064e-07, No Iterations 280
time step continuity errors : sum local = 5.41744e-13, global = -6.38772e-14, cumulative = 3.56423e-08
ExecutionTime = 700.36 s  ClockTime = 701 s

End

