/*---------------------------------------------------------------------------*\
  =========                 |
  \\      /  F ield         | OpenFOAM: The Open Source CFD Toolbox
   \\    /   O peration     | Website:  https://openfoam.org
    \\  /    A nd           | Version:  7
     \\/     M anipulation  |
\*---------------------------------------------------------------------------*/
Build  : 7-49b2b3b8b082
Exec   : icoFoam
Date   : May 14 2021
Time   : 19:19:56
Host   : "c444-071.stampede2.tacc.utexas.edu"
PID    : 15334
I/O    : uncollated
Case   : /work2/06782/kenmeyer/stampede2/final_serial/COE347/finalProject/test_movingboundary/wedge05_space/wedge05
nProcs : 1
sigFpe : Enabling floating point exception trapping (FOAM_SIGFPE).
fileModificationChecking : Monitoring run-time modified files using timeStampMaster (fileModificationSkew 10)
allowSystemOperations : Allowing user-supplied system call operations

// * * * * * * * * * * * * * * * * * * * * * * * * * * * * * * * * * * * * * //
Create time

Create mesh for time = 0

Reading transportProperties

Reading field p

Reading field U

Reading/calculating face flux field phi


Starting time loop

Time = 0.05

Courant Number mean: 0.0108275 max: 0.149203
smoothSolver:  Solving for Ux, Initial residual = 1, Final residual = 9.89752e-06, No Iterations 18
smoothSolver:  Solving for Uy, Initial residual = 0, Final residual = 0, No Iterations 0
DICPCG:  Solving for p, Initial residual = 1, Final residual = 0.0494316, No Iterations 292
time step continuity errors : sum local = 4.91562e-07, global = -1.27457e-09, cumulative = -1.27457e-09
DICPCG:  Solving for p, Initial residual = 0.154614, Final residual = 9.88877e-07, No Iterations 394
time step continuity errors : sum local = 1.24075e-10, global = -4.85027e-13, cumulative = -1.27506e-09
ExecutionTime = 1.34 s  ClockTime = 1 s

Time = 0.1

Courant Number mean: 0.010922 max: 0.377978
smoothSolver:  Solving for Ux, Initial residual = 0.240485, Final residual = 8.28375e-06, No Iterations 13
smoothSolver:  Solving for Uy, Initial residual = 0.242718, Final residual = 9.06052e-06, No Iterations 13
DICPCG:  Solving for p, Initial residual = 0.14983, Final residual = 0.00738304, No Iterations 285
time step continuity errors : sum local = 9.55796e-07, global = -1.32244e-09, cumulative = -2.5975e-09
DICPCG:  Solving for p, Initial residual = 0.369466, Final residual = 9.26653e-07, No Iterations 402
time step continuity errors : sum local = 4.98743e-11, global = 3.03415e-13, cumulative = -2.59719e-09
ExecutionTime = 2.19 s  ClockTime = 2 s

Time = 0.15

Courant Number mean: 0.0109831 max: 0.346451
smoothSolver:  Solving for Ux, Initial residual = 0.0752859, Final residual = 6.21613e-06, No Iterations 13
smoothSolver:  Solving for Uy, Initial residual = 0.0516113, Final residual = 6.60864e-06, No Iterations 11
DICPCG:  Solving for p, Initial residual = 0.395528, Final residual = 0.0194749, No Iterations 100
time step continuity errors : sum local = 7.09394e-07, global = -1.28311e-07, cumulative = -1.30908e-07
DICPCG:  Solving for p, Initial residual = 0.24038, Final residual = 9.16234e-07, No Iterations 377
time step continuity errors : sum local = 2.80422e-11, global = -1.33373e-13, cumulative = -1.30908e-07
ExecutionTime = 2.83 s  ClockTime = 3 s

Time = 0.2

Courant Number mean: 0.0109487 max: 0.276794
smoothSolver:  Solving for Ux, Initial residual = 0.0219461, Final residual = 6.51517e-06, No Iterations 11
smoothSolver:  Solving for Uy, Initial residual = 0.0205387, Final residual = 8.47724e-06, No Iterations 8
DICPCG:  Solving for p, Initial residual = 0.209791, Final residual = 0.00981184, No Iterations 101
time step continuity errors : sum local = 1.65665e-07, global = 3.07978e-08, cumulative = -1.0011e-07
DICPCG:  Solving for p, Initial residual = 0.117502, Final residual = 8.81781e-07, No Iterations 375
time step continuity errors : sum local = 1.38789e-11, global = 1.61056e-13, cumulative = -1.0011e-07
ExecutionTime = 3.44 s  ClockTime = 3 s

Time = 0.25

Courant Number mean: 0.0109363 max: 0.244437
smoothSolver:  Solving for Ux, Initial residual = 0.00852386, Final residual = 9.36683e-06, No Iterations 10
smoothSolver:  Solving for Uy, Initial residual = 0.00754683, Final residual = 9.98786e-06, No Iterations 8
DICPCG:  Solving for p, Initial residual = 0.117023, Final residual = 0.00569936, No Iterations 102
time step continuity errors : sum local = 5.04192e-08, global = -5.1796e-09, cumulative = -1.0529e-07
DICPCG:  Solving for p, Initial residual = 0.0586303, Final residual = 9.70334e-07, No Iterations 357
time step continuity errors : sum local = 8.46866e-12, global = 1.52012e-14, cumulative = -1.0529e-07
ExecutionTime = 4.03 s  ClockTime = 4 s

Time = 0.3

Courant Number mean: 0.0109224 max: 0.220173
smoothSolver:  Solving for Ux, Initial residual = 0.00761278, Final residual = 6.9142e-06, No Iterations 10
smoothSolver:  Solving for Uy, Initial residual = 0.00801064, Final residual = 7.52493e-06, No Iterations 8
DICPCG:  Solving for p, Initial residual = 0.0497548, Final residual = 0.00242225, No Iterations 102
time step continuity errors : sum local = 2.28196e-08, global = 1.52027e-09, cumulative = -1.0377e-07
DICPCG:  Solving for p, Initial residual = 0.0186747, Final residual = 9.80045e-07, No Iterations 356
time step continuity errors : sum local = 9.18586e-12, global = -5.33024e-14, cumulative = -1.0377e-07
ExecutionTime = 4.62 s  ClockTime = 4 s

Time = 0.35

Courant Number mean: 0.0109107 max: 0.202777
smoothSolver:  Solving for Ux, Initial residual = 0.00598087, Final residual = 9.74635e-06, No Iterations 9
smoothSolver:  Solving for Uy, Initial residual = 0.00683246, Final residual = 6.89216e-06, No Iterations 8
DICPCG:  Solving for p, Initial residual = 0.0339957, Final residual = 0.00168412, No Iterations 100
time step continuity errors : sum local = 1.49734e-08, global = 6.41876e-11, cumulative = -1.03705e-07
DICPCG:  Solving for p, Initial residual = 0.00944553, Final residual = 9.7649e-07, No Iterations 344
time step continuity errors : sum local = 8.62814e-12, global = 1.61001e-14, cumulative = -1.03705e-07
ExecutionTime = 5.2 s  ClockTime = 5 s

Time = 0.4

Courant Number mean: 0.0109 max: 0.189296
smoothSolver:  Solving for Ux, Initial residual = 0.00507585, Final residual = 7.96608e-06, No Iterations 9
smoothSolver:  Solving for Uy, Initial residual = 0.00629342, Final residual = 6.01263e-06, No Iterations 8
DICPCG:  Solving for p, Initial residual = 0.027463, Final residual = 0.00129454, No Iterations 101
time step continuity errors : sum local = 1.12115e-08, global = 2.79797e-10, cumulative = -1.03426e-07
DICPCG:  Solving for p, Initial residual = 0.00636433, Final residual = 9.23436e-07, No Iterations 344
time step continuity errors : sum local = 7.95944e-12, global = 2.32636e-14, cumulative = -1.03426e-07
ExecutionTime = 5.78 s  ClockTime = 6 s

Time = 0.45

Courant Number mean: 0.0108902 max: 0.178513
smoothSolver:  Solving for Ux, Initial residual = 0.00438692, Final residual = 6.66724e-06, No Iterations 9
smoothSolver:  Solving for Uy, Initial residual = 0.00582493, Final residual = 9.80216e-06, No Iterations 7
DICPCG:  Solving for p, Initial residual = 0.0236489, Final residual = 0.00114449, No Iterations 100
time step continuity errors : sum local = 9.65741e-09, global = 1.81236e-10, cumulative = -1.03244e-07
DICPCG:  Solving for p, Initial residual = 0.0052895, Final residual = 9.97441e-07, No Iterations 336
time step continuity errors : sum local = 8.36775e-12, global = -1.23761e-13, cumulative = -1.03245e-07
ExecutionTime = 6.33 s  ClockTime = 6 s

Time = 0.5

Courant Number mean: 0.010881 max: 0.169635
smoothSolver:  Solving for Ux, Initial residual = 0.00386792, Final residual = 5.68409e-06, No Iterations 9
smoothSolver:  Solving for Uy, Initial residual = 0.00545238, Final residual = 8.86094e-06, No Iterations 7
DICPCG:  Solving for p, Initial residual = 0.0209558, Final residual = 0.000985687, No Iterations 100
time step continuity errors : sum local = 8.12193e-09, global = 1.43321e-10, cumulative = -1.03101e-07
DICPCG:  Solving for p, Initial residual = 0.00459331, Final residual = 9.29507e-07, No Iterations 333
time step continuity errors : sum local = 7.61975e-12, global = -4.34548e-14, cumulative = -1.03101e-07
ExecutionTime = 7.37 s  ClockTime = 7 s

Time = 0.55

Courant Number mean: 0.0108724 max: 0.163371
smoothSolver:  Solving for Ux, Initial residual = 0.00346188, Final residual = 8.76643e-06, No Iterations 8
smoothSolver:  Solving for Uy, Initial residual = 0.00514424, Final residual = 8.08842e-06, No Iterations 7
DICPCG:  Solving for p, Initial residual = 0.0188109, Final residual = 0.000863008, No Iterations 100
time step continuity errors : sum local = 6.96401e-09, global = 1.46597e-10, cumulative = -1.02955e-07
DICPCG:  Solving for p, Initial residual = 0.0040763, Final residual = 9.27346e-07, No Iterations 334
time step continuity errors : sum local = 7.44445e-12, global = -1.04256e-13, cumulative = -1.02955e-07
ExecutionTime = 7.93 s  ClockTime = 8 s

Time = 0.6

Courant Number mean: 0.0108643 max: 0.163103
smoothSolver:  Solving for Ux, Initial residual = 0.00313349, Final residual = 7.69829e-06, No Iterations 8
smoothSolver:  Solving for Uy, Initial residual = 0.00487643, Final residual = 7.43318e-06, No Iterations 7
DICPCG:  Solving for p, Initial residual = 0.0171139, Final residual = 0.000822032, No Iterations 99
time step continuity errors : sum local = 6.50335e-09, global = 8.80155e-11, cumulative = -1.02867e-07
DICPCG:  Solving for p, Initial residual = 0.00365043, Final residual = 9.76439e-07, No Iterations 332
time step continuity errors : sum local = 7.68765e-12, global = -7.75787e-14, cumulative = -1.02867e-07
ExecutionTime = 8.48 s  ClockTime = 8 s

Time = 0.65

Courant Number mean: 0.0108566 max: 0.162629
smoothSolver:  Solving for Ux, Initial residual = 0.0028699, Final residual = 6.82472e-06, No Iterations 8
smoothSolver:  Solving for Uy, Initial residual = 0.00465337, Final residual = 6.87172e-06, No Iterations 7
DICPCG:  Solving for p, Initial residual = 0.0156308, Final residual = 0.000773335, No Iterations 98
time step continuity errors : sum local = 6.01134e-09, global = 6.71368e-11, cumulative = -1.028e-07
DICPCG:  Solving for p, Initial residual = 0.00335524, Final residual = 9.33e-07, No Iterations 333
time step continuity errors : sum local = 7.21821e-12, global = -1.13797e-13, cumulative = -1.028e-07
ExecutionTime = 9.04 s  ClockTime = 9 s

Time = 0.7

Courant Number mean: 0.0108493 max: 0.16199
smoothSolver:  Solving for Ux, Initial residual = 0.0026536, Final residual = 6.10336e-06, No Iterations 8
smoothSolver:  Solving for Uy, Initial residual = 0.00445627, Final residual = 6.38619e-06, No Iterations 7
DICPCG:  Solving for p, Initial residual = 0.0144265, Final residual = 0.000691649, No Iterations 98
time step continuity errors : sum local = 5.28811e-09, global = 5.76965e-11, cumulative = -1.02742e-07
DICPCG:  Solving for p, Initial residual = 0.00308588, Final residual = 9.7924e-07, No Iterations 332
time step continuity errors : sum local = 7.45325e-12, global = -1.13185e-13, cumulative = -1.02742e-07
ExecutionTime = 9.59 s  ClockTime = 9 s

Time = 0.75

Courant Number mean: 0.0108423 max: 0.16122
smoothSolver:  Solving for Ux, Initial residual = 0.00247103, Final residual = 9.92409e-06, No Iterations 7
smoothSolver:  Solving for Uy, Initial residual = 0.00428238, Final residual = 5.96348e-06, No Iterations 7
DICPCG:  Solving for p, Initial residual = 0.0133944, Final residual = 0.000662238, No Iterations 98
time step continuity errors : sum local = 4.98606e-09, global = 7.49473e-11, cumulative = -1.02667e-07
DICPCG:  Solving for p, Initial residual = 0.00296727, Final residual = 9.96995e-07, No Iterations 331
time step continuity errors : sum local = 7.47384e-12, global = -9.55891e-14, cumulative = -1.02667e-07
ExecutionTime = 10.14 s  ClockTime = 10 s

Time = 0.8

Courant Number mean: 0.0108355 max: 0.16035
smoothSolver:  Solving for Ux, Initial residual = 0.00231088, Final residual = 9.03032e-06, No Iterations 7
smoothSolver:  Solving for Uy, Initial residual = 0.00411894, Final residual = 5.59327e-06, No Iterations 7
DICPCG:  Solving for p, Initial residual = 0.0125457, Final residual = 0.000589127, No Iterations 98
time step continuity errors : sum local = 4.36994e-09, global = 4.52338e-11, cumulative = -1.02622e-07
DICPCG:  Solving for p, Initial residual = 0.00270599, Final residual = 9.63377e-07, No Iterations 330
time step continuity errors : sum local = 7.11696e-12, global = -6.83713e-14, cumulative = -1.02622e-07
ExecutionTime = 10.69 s  ClockTime = 11 s

Time = 0.85

Courant Number mean: 0.0108291 max: 0.159401
smoothSolver:  Solving for Ux, Initial residual = 0.00217492, Final residual = 8.25444e-06, No Iterations 7
smoothSolver:  Solving for Uy, Initial residual = 0.00398206, Final residual = 9.74409e-06, No Iterations 6
DICPCG:  Solving for p, Initial residual = 0.0117513, Final residual = 0.000553538, No Iterations 98
time step continuity errors : sum local = 4.05151e-09, global = 4.69436e-11, cumulative = -1.02575e-07
DICPCG:  Solving for p, Initial residual = 0.00262228, Final residual = 9.53279e-07, No Iterations 329
time step continuity errors : sum local = 6.94927e-12, global = -4.05119e-14, cumulative = -1.02575e-07
ExecutionTime = 11.23 s  ClockTime = 11 s

Time = 0.9

Courant Number mean: 0.0108229 max: 0.158395
smoothSolver:  Solving for Ux, Initial residual = 0.00205392, Final residual = 7.58495e-06, No Iterations 7
smoothSolver:  Solving for Uy, Initial residual = 0.00385482, Final residual = 9.22592e-06, No Iterations 6
DICPCG:  Solving for p, Initial residual = 0.0110249, Final residual = 0.000511551, No Iterations 98
time step continuity errors : sum local = 3.69627e-09, global = 3.8505e-11, cumulative = -1.02537e-07
DICPCG:  Solving for p, Initial residual = 0.00243929, Final residual = 9.69955e-07, No Iterations 329
time step continuity errors : sum local = 6.98185e-12, global = -5.9472e-14, cumulative = -1.02537e-07
ExecutionTime = 11.78 s  ClockTime = 12 s

Time = 0.95

Courant Number mean: 0.0108168 max: 0.157346
smoothSolver:  Solving for Ux, Initial residual = 0.00194717, Final residual = 7.00038e-06, No Iterations 7
smoothSolver:  Solving for Uy, Initial residual = 0.00373957, Final residual = 8.74471e-06, No Iterations 6
DICPCG:  Solving for p, Initial residual = 0.010469, Final residual = 0.000516017, No Iterations 97
time step continuity errors : sum local = 3.68404e-09, global = 2.69472e-11, cumulative = -1.0251e-07
DICPCG:  Solving for p, Initial residual = 0.00231708, Final residual = 9.6479e-07, No Iterations 328
time step continuity errors : sum local = 6.86285e-12, global = -5.12901e-14, cumulative = -1.0251e-07
ExecutionTime = 12.32 s  ClockTime = 12 s

Time = 1

Courant Number mean: 0.010811 max: 0.156268
smoothSolver:  Solving for Ux, Initial residual = 0.00185152, Final residual = 6.487e-06, No Iterations 7
smoothSolver:  Solving for Uy, Initial residual = 0.00363336, Final residual = 8.30969e-06, No Iterations 6
DICPCG:  Solving for p, Initial residual = 0.00998458, Final residual = 0.000482216, No Iterations 97
time step continuity errors : sum local = 3.40346e-09, global = 2.50673e-11, cumulative = -1.02485e-07
DICPCG:  Solving for p, Initial residual = 0.00220718, Final residual = 9.59126e-07, No Iterations 329
time step continuity errors : sum local = 6.74522e-12, global = -6.99403e-14, cumulative = -1.02485e-07
ExecutionTime = 13.34 s  ClockTime = 13 s

Time = 1.05

Courant Number mean: 0.0108053 max: 0.155171
smoothSolver:  Solving for Ux, Initial residual = 0.00176538, Final residual = 6.03321e-06, No Iterations 7
smoothSolver:  Solving for Uy, Initial residual = 0.00353549, Final residual = 7.91393e-06, No Iterations 6
DICPCG:  Solving for p, Initial residual = 0.00948999, Final residual = 0.000472012, No Iterations 96
time step continuity errors : sum local = 3.2949e-09, global = 1.49517e-11, cumulative = -1.0247e-07
DICPCG:  Solving for p, Initial residual = 0.0020928, Final residual = 9.78203e-07, No Iterations 328
time step continuity errors : sum local = 6.80452e-12, global = -6.64706e-14, cumulative = -1.0247e-07
ExecutionTime = 13.88 s  ClockTime = 14 s

Time = 1.1

Courant Number mean: 0.0107999 max: 0.154576
smoothSolver:  Solving for Ux, Initial residual = 0.00168726, Final residual = 5.62976e-06, No Iterations 7
smoothSolver:  Solving for Uy, Initial residual = 0.00344442, Final residual = 7.55142e-06, No Iterations 6
DICPCG:  Solving for p, Initial residual = 0.00905624, Final residual = 0.000444696, No Iterations 96
time step continuity errors : sum local = 3.07172e-09, global = 1.37841e-11, cumulative = -1.02456e-07
DICPCG:  Solving for p, Initial residual = 0.00199208, Final residual = 9.70709e-07, No Iterations 328
time step continuity errors : sum local = 6.68281e-12, global = -7.09536e-14, cumulative = -1.02456e-07
ExecutionTime = 14.43 s  ClockTime = 14 s

Time = 1.15

Courant Number mean: 0.0107945 max: 0.153977
smoothSolver:  Solving for Ux, Initial residual = 0.00161625, Final residual = 9.7321e-06, No Iterations 6
smoothSolver:  Solving for Uy, Initial residual = 0.00335956, Final residual = 7.22029e-06, No Iterations 6
DICPCG:  Solving for p, Initial residual = 0.008693, Final residual = 0.000407222, No Iterations 98
time step continuity errors : sum local = 2.78462e-09, global = 5.74303e-11, cumulative = -1.02399e-07
DICPCG:  Solving for p, Initial residual = 0.00206932, Final residual = 9.90382e-07, No Iterations 325
time step continuity errors : sum local = 6.74999e-12, global = -1.19825e-14, cumulative = -1.02399e-07
ExecutionTime = 14.97 s  ClockTime = 15 s

Time = 1.2

Courant Number mean: 0.0107893 max: 0.153354
smoothSolver:  Solving for Ux, Initial residual = 0.00154877, Final residual = 9.16939e-06, No Iterations 6
smoothSolver:  Solving for Uy, Initial residual = 0.0032712, Final residual = 6.92063e-06, No Iterations 6
DICPCG:  Solving for p, Initial residual = 0.00836383, Final residual = 0.000401686, No Iterations 97
time step continuity errors : sum local = 2.71843e-09, global = 1.90116e-11, cumulative = -1.0238e-07
DICPCG:  Solving for p, Initial residual = 0.00195342, Final residual = 9.33056e-07, No Iterations 324
time step continuity errors : sum local = 6.29558e-12, global = 5.30447e-15, cumulative = -1.0238e-07
ExecutionTime = 15.5 s  ClockTime = 15 s

Time = 1.25

Courant Number mean: 0.0107843 max: 0.152709
smoothSolver:  Solving for Ux, Initial residual = 0.00149006, Final residual = 8.64513e-06, No Iterations 6
smoothSolver:  Solving for Uy, Initial residual = 0.00319914, Final residual = 6.63659e-06, No Iterations 6
DICPCG:  Solving for p, Initial residual = 0.00805722, Final residual = 0.000402411, No Iterations 96
time step continuity errors : sum local = 2.69879e-09, global = 1.82319e-11, cumulative = -1.02362e-07
DICPCG:  Solving for p, Initial residual = 0.00190326, Final residual = 9.21742e-07, No Iterations 325
time step continuity errors : sum local = 6.16299e-12, global = -2.34546e-14, cumulative = -1.02362e-07
ExecutionTime = 16.04 s  ClockTime = 16 s

Time = 1.3

Courant Number mean: 0.0107793 max: 0.152047
smoothSolver:  Solving for Ux, Initial residual = 0.00143516, Final residual = 8.17167e-06, No Iterations 6
smoothSolver:  Solving for Uy, Initial residual = 0.00312884, Final residual = 6.37419e-06, No Iterations 6
DICPCG:  Solving for p, Initial residual = 0.00775877, Final residual = 0.000385172, No Iterations 96
time step continuity errors : sum local = 2.5599e-09, global = 1.55042e-11, cumulative = -1.02346e-07
DICPCG:  Solving for p, Initial residual = 0.00182877, Final residual = 9.13202e-07, No Iterations 325
time step continuity errors : sum local = 6.05154e-12, global = -2.78753e-14, cumulative = -1.02346e-07
ExecutionTime = 16.57 s  ClockTime = 16 s

Time = 1.35

Courant Number mean: 0.0107745 max: 0.151372
smoothSolver:  Solving for Ux, Initial residual = 0.00138444, Final residual = 7.73923e-06, No Iterations 6
smoothSolver:  Solving for Uy, Initial residual = 0.00306297, Final residual = 6.12972e-06, No Iterations 6
DICPCG:  Solving for p, Initial residual = 0.00750768, Final residual = 0.000370135, No Iterations 96
time step continuity errors : sum local = 2.43882e-09, global = 1.61735e-11, cumulative = -1.0233e-07
DICPCG:  Solving for p, Initial residual = 0.00176614, Final residual = 9.35108e-07, No Iterations 324
time step continuity errors : sum local = 6.14408e-12, global = -1.20262e-14, cumulative = -1.0233e-07
ExecutionTime = 17.1 s  ClockTime = 17 s

Time = 1.4

Courant Number mean: 0.0107698 max: 0.150688
smoothSolver:  Solving for Ux, Initial residual = 0.00133723, Final residual = 7.34429e-06, No Iterations 6
smoothSolver:  Solving for Uy, Initial residual = 0.00300015, Final residual = 5.90043e-06, No Iterations 6
DICPCG:  Solving for p, Initial residual = 0.00726173, Final residual = 0.000354791, No Iterations 96
time step continuity errors : sum local = 2.31822e-09, global = 1.54634e-11, cumulative = -1.02315e-07
DICPCG:  Solving for p, Initial residual = 0.00170693, Final residual = 9.19418e-07, No Iterations 324
time step continuity errors : sum local = 5.99094e-12, global = -1.2912e-14, cumulative = -1.02315e-07
ExecutionTime = 17.64 s  ClockTime = 17 s

Time = 1.45

Courant Number mean: 0.0107652 max: 0.149997
smoothSolver:  Solving for Ux, Initial residual = 0.00129318, Final residual = 6.98202e-06, No Iterations 6
smoothSolver:  Solving for Uy, Initial residual = 0.00294056, Final residual = 5.68653e-06, No Iterations 6
DICPCG:  Solving for p, Initial residual = 0.0070166, Final residual = 0.000341651, No Iterations 96
time step continuity errors : sum local = 2.21438e-09, global = 1.51768e-11, cumulative = -1.02299e-07
DICPCG:  Solving for p, Initial residual = 0.00164517, Final residual = 9.81222e-07, No Iterations 323
time step continuity errors : sum local = 6.34289e-12, global = -4.52153e-15, cumulative = -1.02299e-07
ExecutionTime = 18.17 s  ClockTime = 18 s

Time = 1.5

Courant Number mean: 0.0107607 max: 0.149301
smoothSolver:  Solving for Ux, Initial residual = 0.00125196, Final residual = 6.64884e-06, No Iterations 6
smoothSolver:  Solving for Uy, Initial residual = 0.00288363, Final residual = 5.48573e-06, No Iterations 6
DICPCG:  Solving for p, Initial residual = 0.00685308, Final residual = 0.000331782, No Iterations 96
time step continuity errors : sum local = 2.1335e-09, global = 1.46163e-11, cumulative = -1.02285e-07
DICPCG:  Solving for p, Initial residual = 0.0016067, Final residual = 9.52618e-07, No Iterations 323
time step continuity errors : sum local = 6.10946e-12, global = -5.27891e-15, cumulative = -1.02285e-07
ExecutionTime = 19.17 s  ClockTime = 19 s

Time = 1.55

Courant Number mean: 0.0107563 max: 0.148603
smoothSolver:  Solving for Ux, Initial residual = 0.00121336, Final residual = 6.34175e-06, No Iterations 6
smoothSolver:  Solving for Uy, Initial residual = 0.00282912, Final residual = 5.29619e-06, No Iterations 6
DICPCG:  Solving for p, Initial residual = 0.00663045, Final residual = 0.000319695, No Iterations 96
time step continuity errors : sum local = 2.04004e-09, global = 1.41946e-11, cumulative = -1.02271e-07
DICPCG:  Solving for p, Initial residual = 0.001548, Final residual = 9.3672e-07, No Iterations 323
time step continuity errors : sum local = 5.96247e-12, global = -8.49166e-15, cumulative = -1.02271e-07
ExecutionTime = 19.71 s  ClockTime = 20 s

Time = 1.6

Courant Number mean: 0.0107519 max: 0.147904
smoothSolver:  Solving for Ux, Initial residual = 0.00117706, Final residual = 6.05775e-06, No Iterations 6
smoothSolver:  Solving for Uy, Initial residual = 0.0027769, Final residual = 9.88332e-06, No Iterations 5
DICPCG:  Solving for p, Initial residual = 0.00652362, Final residual = 0.000317335, No Iterations 96
time step continuity errors : sum local = 2.00994e-09, global = 1.23915e-11, cumulative = -1.02258e-07
DICPCG:  Solving for p, Initial residual = 0.00163513, Final residual = 9.18245e-07, No Iterations 323
time step continuity errors : sum local = 5.80105e-12, global = 1.00507e-14, cumulative = -1.02258e-07
ExecutionTime = 20.23 s  ClockTime = 20 s

Time = 1.65

Courant Number mean: 0.0107477 max: 0.147205
smoothSolver:  Solving for Ux, Initial residual = 0.00114255, Final residual = 5.79511e-06, No Iterations 6
smoothSolver:  Solving for Uy, Initial residual = 0.00272644, Final residual = 9.58964e-06, No Iterations 5
DICPCG:  Solving for p, Initial residual = 0.00630962, Final residual = 0.000307355, No Iterations 96
time step continuity errors : sum local = 1.9323e-09, global = 8.70521e-12, cumulative = -1.0225e-07
DICPCG:  Solving for p, Initial residual = 0.00157386, Final residual = 9.58733e-07, No Iterations 324
time step continuity errors : sum local = 6.01222e-12, global = -2.11833e-14, cumulative = -1.0225e-07
ExecutionTime = 20.76 s  ClockTime = 21 s

Time = 1.7

Courant Number mean: 0.0107435 max: 0.146509
smoothSolver:  Solving for Ux, Initial residual = 0.00111032, Final residual = 5.55094e-06, No Iterations 6
smoothSolver:  Solving for Uy, Initial residual = 0.00267836, Final residual = 9.28999e-06, No Iterations 5
DICPCG:  Solving for p, Initial residual = 0.00612435, Final residual = 0.000297323, No Iterations 96
time step continuity errors : sum local = 1.85595e-09, global = 9.6065e-12, cumulative = -1.0224e-07
DICPCG:  Solving for p, Initial residual = 0.00152917, Final residual = 9.73699e-07, No Iterations 323
time step continuity errors : sum local = 6.06329e-12, global = -4.022e-15, cumulative = -1.0224e-07
ExecutionTime = 21.29 s  ClockTime = 21 s

Time = 1.75

Courant Number mean: 0.0107394 max: 0.145816
smoothSolver:  Solving for Ux, Initial residual = 0.00107978, Final residual = 5.32371e-06, No Iterations 6
smoothSolver:  Solving for Uy, Initial residual = 0.00263208, Final residual = 9.00992e-06, No Iterations 5
DICPCG:  Solving for p, Initial residual = 0.00601345, Final residual = 0.000289874, No Iterations 96
time step continuity errors : sum local = 1.79698e-09, global = 9.13929e-12, cumulative = -1.02231e-07
DICPCG:  Solving for p, Initial residual = 0.00149643, Final residual = 9.65733e-07, No Iterations 323
time step continuity errors : sum local = 5.97265e-12, global = -6.62875e-15, cumulative = -1.02231e-07
ExecutionTime = 21.82 s  ClockTime = 22 s

Time = 1.8

Courant Number mean: 0.0107354 max: 0.145127
smoothSolver:  Solving for Ux, Initial residual = 0.00105084, Final residual = 9.76079e-06, No Iterations 5
smoothSolver:  Solving for Uy, Initial residual = 0.00258736, Final residual = 8.74204e-06, No Iterations 5
DICPCG:  Solving for p, Initial residual = 0.00594114, Final residual = 0.000286507, No Iterations 98
time step continuity errors : sum local = 1.76414e-09, global = 5.8086e-11, cumulative = -1.02173e-07
DICPCG:  Solving for p, Initial residual = 0.0017907, Final residual = 9.7807e-07, No Iterations 321
time step continuity errors : sum local = 6.00825e-12, global = 3.3204e-14, cumulative = -1.02173e-07
ExecutionTime = 22.35 s  ClockTime = 22 s

Time = 1.85

Courant Number mean: 0.0107315 max: 0.144445
smoothSolver:  Solving for Ux, Initial residual = 0.00102076, Final residual = 9.42563e-06, No Iterations 5
smoothSolver:  Solving for Uy, Initial residual = 0.00253363, Final residual = 8.50039e-06, No Iterations 5
DICPCG:  Solving for p, Initial residual = 0.00580805, Final residual = 0.000286128, No Iterations 97
time step continuity errors : sum local = 1.74851e-09, global = 1.5091e-11, cumulative = -1.02158e-07
DICPCG:  Solving for p, Initial residual = 0.00168139, Final residual = 9.68779e-07, No Iterations 320
time step continuity errors : sum local = 5.90763e-12, global = 1.64326e-14, cumulative = -1.02158e-07
ExecutionTime = 22.88 s  ClockTime = 23 s

Time = 1.9

Courant Number mean: 0.0107276 max: 0.143768
smoothSolver:  Solving for Ux, Initial residual = 0.000995457, Final residual = 9.08351e-06, No Iterations 5
smoothSolver:  Solving for Uy, Initial residual = 0.00249451, Final residual = 8.25782e-06, No Iterations 5
DICPCG:  Solving for p, Initial residual = 0.00564128, Final residual = 0.0002775, No Iterations 97
time step continuity errors : sum local = 1.68548e-09, global = 2.57106e-11, cumulative = -1.02132e-07
DICPCG:  Solving for p, Initial residual = 0.00164923, Final residual = 9.23502e-07, No Iterations 320
time step continuity errors : sum local = 5.59719e-12, global = 2.61237e-14, cumulative = -1.02132e-07
ExecutionTime = 23.41 s  ClockTime = 23 s

Time = 1.95

Courant Number mean: 0.0107238 max: 0.143097
smoothSolver:  Solving for Ux, Initial residual = 0.000970688, Final residual = 8.76571e-06, No Iterations 5
smoothSolver:  Solving for Uy, Initial residual = 0.00245424, Final residual = 8.02819e-06, No Iterations 5
DICPCG:  Solving for p, Initial residual = 0.00553928, Final residual = 0.000272454, No Iterations 97
time step continuity errors : sum local = 1.64441e-09, global = 2.25235e-11, cumulative = -1.02109e-07
DICPCG:  Solving for p, Initial residual = 0.00161984, Final residual = 9.24561e-07, No Iterations 320
time step continuity errors : sum local = 5.56868e-12, global = 1.5287e-14, cumulative = -1.02109e-07
ExecutionTime = 23.93 s  ClockTime = 24 s

Time = 2

Courant Number mean: 0.0107201 max: 0.142431
smoothSolver:  Solving for Ux, Initial residual = 0.000947165, Final residual = 8.46475e-06, No Iterations 5
smoothSolver:  Solving for Uy, Initial residual = 0.00241569, Final residual = 7.80927e-06, No Iterations 5
DICPCG:  Solving for p, Initial residual = 0.00541954, Final residual = 0.000267437, No Iterations 97
time step continuity errors : sum local = 1.60434e-09, global = 2.27733e-11, cumulative = -1.02087e-07
DICPCG:  Solving for p, Initial residual = 0.00158669, Final residual = 9.73972e-07, No Iterations 319
time step continuity errors : sum local = 5.83106e-12, global = 1.40161e-14, cumulative = -1.02087e-07
ExecutionTime = 24.92 s  ClockTime = 25 s

Time = 2.05

Courant Number mean: 0.0107164 max: 0.141773
smoothSolver:  Solving for Ux, Initial residual = 0.000924649, Final residual = 8.18116e-06, No Iterations 5
smoothSolver:  Solving for Uy, Initial residual = 0.00237812, Final residual = 7.60022e-06, No Iterations 5
DICPCG:  Solving for p, Initial residual = 0.0053429, Final residual = 0.000260929, No Iterations 97
time step continuity errors : sum local = 1.55596e-09, global = 2.22461e-11, cumulative = -1.02064e-07
DICPCG:  Solving for p, Initial residual = 0.0015647, Final residual = 9.13169e-07, No Iterations 319
time step continuity errors : sum local = 5.43447e-12, global = 1.63454e-14, cumulative = -1.02064e-07
ExecutionTime = 25.45 s  ClockTime = 25 s

Time = 2.1

Courant Number mean: 0.0107128 max: 0.14112
smoothSolver:  Solving for Ux, Initial residual = 0.000903118, Final residual = 7.91326e-06, No Iterations 5
smoothSolver:  Solving for Uy, Initial residual = 0.00234161, Final residual = 7.3995e-06, No Iterations 5
DICPCG:  Solving for p, Initial residual = 0.00521552, Final residual = 0.000256633, No Iterations 97
time step continuity errors : sum local = 1.52132e-09, global = 2.15649e-11, cumulative = -1.02043e-07
DICPCG:  Solving for p, Initial residual = 0.00152613, Final residual = 9.20906e-07, No Iterations 319
time step continuity errors : sum local = 5.4484e-12, global = 9.83001e-15, cumulative = -1.02043e-07
ExecutionTime = 25.96 s  ClockTime = 26 s

Time = 2.15

Courant Number mean: 0.0107092 max: 0.140475
smoothSolver:  Solving for Ux, Initial residual = 0.000882481, Final residual = 7.65964e-06, No Iterations 5
smoothSolver:  Solving for Uy, Initial residual = 0.00230621, Final residual = 7.20808e-06, No Iterations 5
DICPCG:  Solving for p, Initial residual = 0.00510072, Final residual = 0.000250482, No Iterations 97
time step continuity errors : sum local = 1.47632e-09, global = 2.14763e-11, cumulative = -1.02021e-07
DICPCG:  Solving for p, Initial residual = 0.0014972, Final residual = 9.89179e-07, No Iterations 318
time step continuity errors : sum local = 5.81914e-12, global = 3.63383e-15, cumulative = -1.02021e-07
ExecutionTime = 26.48 s  ClockTime = 26 s

Time = 2.2

Courant Number mean: 0.0107057 max: 0.139837
smoothSolver:  Solving for Ux, Initial residual = 0.000862683, Final residual = 7.41945e-06, No Iterations 5
smoothSolver:  Solving for Uy, Initial residual = 0.00227178, Final residual = 7.02468e-06, No Iterations 5
DICPCG:  Solving for p, Initial residual = 0.00499916, Final residual = 0.000246226, No Iterations 97
time step continuity errors : sum local = 1.44313e-09, global = 2.13102e-11, cumulative = -1.02e-07
DICPCG:  Solving for p, Initial residual = 0.00147155, Final residual = 9.69299e-07, No Iterations 318
time step continuity errors : sum local = 5.67065e-12, global = 3.04718e-15, cumulative = -1.02e-07
ExecutionTime = 26.99 s  ClockTime = 27 s

Time = 2.25

Courant Number mean: 0.0107023 max: 0.139206
smoothSolver:  Solving for Ux, Initial residual = 0.000843683, Final residual = 7.19176e-06, No Iterations 5
smoothSolver:  Solving for Uy, Initial residual = 0.00223822, Final residual = 6.84817e-06, No Iterations 5
DICPCG:  Solving for p, Initial residual = 0.00491149, Final residual = 0.000241069, No Iterations 97
time step continuity errors : sum local = 1.40516e-09, global = 2.09258e-11, cumulative = -1.01979e-07
DICPCG:  Solving for p, Initial residual = 0.00144372, Final residual = 9.64991e-07, No Iterations 318
time step continuity errors : sum local = 5.61453e-12, global = 5.66722e-16, cumulative = -1.01979e-07
ExecutionTime = 27.51 s  ClockTime = 27 s

Time = 2.3

Courant Number mean: 0.0106989 max: 0.138583
smoothSolver:  Solving for Ux, Initial residual = 0.000825417, Final residual = 6.97542e-06, No Iterations 5
smoothSolver:  Solving for Uy, Initial residual = 0.00220559, Final residual = 6.67919e-06, No Iterations 5
DICPCG:  Solving for p, Initial residual = 0.00483815, Final residual = 0.000236991, No Iterations 97
time step continuity errors : sum local = 1.374e-09, global = 2.05665e-11, cumulative = -1.01958e-07
DICPCG:  Solving for p, Initial residual = 0.00142362, Final residual = 9.22946e-07, No Iterations 318
time step continuity errors : sum local = 5.34176e-12, global = -2.97171e-15, cumulative = -1.01958e-07
ExecutionTime = 28.03 s  ClockTime = 28 s

Time = 2.35

Courant Number mean: 0.0106955 max: 0.137967
smoothSolver:  Solving for Ux, Initial residual = 0.00080785, Final residual = 6.76991e-06, No Iterations 5
smoothSolver:  Solving for Uy, Initial residual = 0.00217372, Final residual = 6.51642e-06, No Iterations 5
DICPCG:  Solving for p, Initial residual = 0.00477807, Final residual = 0.000234119, No Iterations 97
time step continuity errors : sum local = 1.35025e-09, global = 1.99598e-11, cumulative = -1.01938e-07
DICPCG:  Solving for p, Initial residual = 0.00140668, Final residual = 9.11873e-07, No Iterations 318
time step continuity errors : sum local = 5.24998e-12, global = -7.24629e-15, cumulative = -1.01938e-07
ExecutionTime = 28.54 s  ClockTime = 28 s

Time = 2.4

Courant Number mean: 0.0106922 max: 0.137358
smoothSolver:  Solving for Ux, Initial residual = 0.000790928, Final residual = 6.57419e-06, No Iterations 5
smoothSolver:  Solving for Uy, Initial residual = 0.00214267, Final residual = 6.36094e-06, No Iterations 5
DICPCG:  Solving for p, Initial residual = 0.00468976, Final residual = 0.000229769, No Iterations 97
time step continuity errors : sum local = 1.3183e-09, global = 2.00071e-11, cumulative = -1.01918e-07
DICPCG:  Solving for p, Initial residual = 0.00137403, Final residual = 9.77957e-07, No Iterations 317
time step continuity errors : sum local = 5.60145e-12, global = -9.85452e-15, cumulative = -1.01918e-07
ExecutionTime = 29.05 s  ClockTime = 29 s

Time = 2.45

Courant Number mean: 0.0106889 max: 0.136757
smoothSolver:  Solving for Ux, Initial residual = 0.000774628, Final residual = 6.38792e-06, No Iterations 5
smoothSolver:  Solving for Uy, Initial residual = 0.00211236, Final residual = 6.21079e-06, No Iterations 5
DICPCG:  Solving for p, Initial residual = 0.00460021, Final residual = 0.000226343, No Iterations 97
time step continuity errors : sum local = 1.292e-09, global = 1.96519e-11, cumulative = -1.01899e-07
DICPCG:  Solving for p, Initial residual = 0.00135549, Final residual = 9.37982e-07, No Iterations 317
time step continuity errors : sum local = 5.34518e-12, global = -1.3654e-14, cumulative = -1.01899e-07
ExecutionTime = 29.57 s  ClockTime = 29 s

Time = 2.5

Courant Number mean: 0.0106857 max: 0.136163
smoothSolver:  Solving for Ux, Initial residual = 0.000758904, Final residual = 6.21028e-06, No Iterations 5
smoothSolver:  Solving for Uy, Initial residual = 0.00208278, Final residual = 6.06577e-06, No Iterations 5
DICPCG:  Solving for p, Initial residual = 0.00455664, Final residual = 0.000222301, No Iterations 97
time step continuity errors : sum local = 1.26261e-09, global = 1.91193e-11, cumulative = -1.0188e-07
DICPCG:  Solving for p, Initial residual = 0.00134022, Final residual = 9.17658e-07, No Iterations 317
time step continuity errors : sum local = 5.20369e-12, global = -1.68302e-14, cumulative = -1.0188e-07
ExecutionTime = 30.55 s  ClockTime = 30 s

Time = 2.55

Courant Number mean: 0.0106825 max: 0.135576
smoothSolver:  Solving for Ux, Initial residual = 0.000743745, Final residual = 6.04068e-06, No Iterations 5
smoothSolver:  Solving for Uy, Initial residual = 0.00205392, Final residual = 5.9266e-06, No Iterations 5
DICPCG:  Solving for p, Initial residual = 0.004477, Final residual = 0.000218235, No Iterations 97
time step continuity errors : sum local = 1.23345e-09, global = 1.92309e-11, cumulative = -1.01861e-07
DICPCG:  Solving for p, Initial residual = 0.00132024, Final residual = 9.2014e-07, No Iterations 317
time step continuity errors : sum local = 5.19209e-12, global = -1.90191e-14, cumulative = -1.01861e-07
ExecutionTime = 31.06 s  ClockTime = 31 s

Time = 2.6

Courant Number mean: 0.0106794 max: 0.134997
smoothSolver:  Solving for Ux, Initial residual = 0.000729092, Final residual = 5.87852e-06, No Iterations 5
smoothSolver:  Solving for Uy, Initial residual = 0.00202584, Final residual = 5.7929e-06, No Iterations 5
DICPCG:  Solving for p, Initial residual = 0.00437541, Final residual = 0.000214062, No Iterations 97
time step continuity errors : sum local = 1.20397e-09, global = 1.89424e-11, cumulative = -1.01842e-07
DICPCG:  Solving for p, Initial residual = 0.00128929, Final residual = 9.71771e-07, No Iterations 316
time step continuity errors : sum local = 5.45688e-12, global = -2.09342e-14, cumulative = -1.01842e-07
ExecutionTime = 31.57 s  ClockTime = 31 s

Time = 2.65

Courant Number mean: 0.0106763 max: 0.134424
smoothSolver:  Solving for Ux, Initial residual = 0.000714939, Final residual = 5.72359e-06, No Iterations 5
smoothSolver:  Solving for Uy, Initial residual = 0.0019983, Final residual = 5.66374e-06, No Iterations 5
DICPCG:  Solving for p, Initial residual = 0.00429877, Final residual = 0.000211808, No Iterations 97
time step continuity errors : sum local = 1.18562e-09, global = 1.8527e-11, cumulative = -1.01823e-07
DICPCG:  Solving for p, Initial residual = 0.00126952, Final residual = 9.52925e-07, No Iterations 316
time step continuity errors : sum local = 5.32595e-12, global = -2.49936e-14, cumulative = -1.01823e-07
ExecutionTime = 32.09 s  ClockTime = 32 s

Time = 2.7

Courant Number mean: 0.0106733 max: 0.133859
smoothSolver:  Solving for Ux, Initial residual = 0.000701261, Final residual = 5.5753e-06, No Iterations 5
smoothSolver:  Solving for Uy, Initial residual = 0.00197142, Final residual = 5.53891e-06, No Iterations 5
DICPCG:  Solving for p, Initial residual = 0.00425906, Final residual = 0.000211289, No Iterations 97
time step continuity errors : sum local = 1.17724e-09, global = 1.82892e-11, cumulative = -1.01805e-07
DICPCG:  Solving for p, Initial residual = 0.00125498, Final residual = 9.44943e-07, No Iterations 316
time step continuity errors : sum local = 5.25711e-12, global = -2.42409e-14, cumulative = -1.01805e-07
ExecutionTime = 32.61 s  ClockTime = 33 s

Time = 2.75

Courant Number mean: 0.0106703 max: 0.133301
smoothSolver:  Solving for Ux, Initial residual = 0.000688027, Final residual = 5.43326e-06, No Iterations 5
smoothSolver:  Solving for Uy, Initial residual = 0.00194503, Final residual = 5.41866e-06, No Iterations 5
DICPCG:  Solving for p, Initial residual = 0.0042081, Final residual = 0.000210183, No Iterations 97
time step continuity errors : sum local = 1.16566e-09, global = 1.72786e-11, cumulative = -1.01788e-07
DICPCG:  Solving for p, Initial residual = 0.00124675, Final residual = 9.25482e-07, No Iterations 316
time step continuity errors : sum local = 5.12477e-12, global = -3.00875e-14, cumulative = -1.01788e-07
ExecutionTime = 33.11 s  ClockTime = 33 s

Time = 2.8

Courant Number mean: 0.0106673 max: 0.13275
smoothSolver:  Solving for Ux, Initial residual = 0.000675213, Final residual = 5.29713e-06, No Iterations 5
smoothSolver:  Solving for Uy, Initial residual = 0.00191943, Final residual = 5.30272e-06, No Iterations 5
DICPCG:  Solving for p, Initial residual = 0.00412858, Final residual = 0.000205177, No Iterations 97
time step continuity errors : sum local = 1.13273e-09, global = 1.7881e-11, cumulative = -1.0177e-07
DICPCG:  Solving for p, Initial residual = 0.00122015, Final residual = 9.19575e-07, No Iterations 316
time step continuity errors : sum local = 5.06942e-12, global = -2.62925e-14, cumulative = -1.0177e-07
ExecutionTime = 33.63 s  ClockTime = 34 s

Time = 2.85

Courant Number mean: 0.0106644 max: 0.132206
smoothSolver:  Solving for Ux, Initial residual = 0.000662809, Final residual = 5.16657e-06, No Iterations 5
smoothSolver:  Solving for Uy, Initial residual = 0.00189432, Final residual = 5.19039e-06, No Iterations 5
DICPCG:  Solving for p, Initial residual = 0.00407438, Final residual = 0.000200648, No Iterations 97
time step continuity errors : sum local = 1.10277e-09, global = 1.74499e-11, cumulative = -1.01752e-07
DICPCG:  Solving for p, Initial residual = 0.0012086, Final residual = 9.97886e-07, No Iterations 315
time step continuity errors : sum local = 5.47625e-12, global = -2.95642e-14, cumulative = -1.01752e-07
ExecutionTime = 34.13 s  ClockTime = 34 s

Time = 2.9

Courant Number mean: 0.0106615 max: 0.131668
smoothSolver:  Solving for Ux, Initial residual = 0.00065078, Final residual = 5.04107e-06, No Iterations 5
smoothSolver:  Solving for Uy, Initial residual = 0.00186972, Final residual = 5.08162e-06, No Iterations 5
DICPCG:  Solving for p, Initial residual = 0.00399222, Final residual = 0.000195816, No Iterations 97
time step continuity errors : sum local = 1.07144e-09, global = 1.7112e-11, cumulative = -1.01735e-07
DICPCG:  Solving for p, Initial residual = 0.00118183, Final residual = 9.96471e-07, No Iterations 315
time step continuity errors : sum local = 5.44455e-12, global = -2.71125e-14, cumulative = -1.01735e-07
ExecutionTime = 34.65 s  ClockTime = 35 s

Time = 2.95

Courant Number mean: 0.0106586 max: 0.131138
smoothSolver:  Solving for Ux, Initial residual = 0.000639123, Final residual = 9.82026e-06, No Iterations 4
smoothSolver:  Solving for Uy, Initial residual = 0.0018456, Final residual = 4.97714e-06, No Iterations 5
DICPCG:  Solving for p, Initial residual = 0.0041931, Final residual = 0.000201422, No Iterations 99
time step continuity errors : sum local = 1.09731e-09, global = 7.64077e-11, cumulative = -1.01659e-07
DICPCG:  Solving for p, Initial residual = 0.00183208, Final residual = 9.53279e-07, No Iterations 320
time step continuity errors : sum local = 5.18579e-12, global = 8.53991e-14, cumulative = -1.01659e-07
ExecutionTime = 35.17 s  ClockTime = 35 s

Time = 3

Courant Number mean: 0.0106558 max: 0.130617
smoothSolver:  Solving for Ux, Initial residual = 0.000625209, Final residual = 9.64723e-06, No Iterations 4
smoothSolver:  Solving for Uy, Initial residual = 0.00180992, Final residual = 4.89596e-06, No Iterations 5
DICPCG:  Solving for p, Initial residual = 0.00411785, Final residual = 0.000192618, No Iterations 98
time step continuity errors : sum local = 1.04351e-09, global = 2.54885e-11, cumulative = -1.01633e-07
DICPCG:  Solving for p, Initial residual = 0.00168877, Final residual = 9.80016e-07, No Iterations 318
time step continuity errors : sum local = 5.30317e-12, global = 3.78176e-14, cumulative = -1.01633e-07
ExecutionTime = 36.13 s  ClockTime = 36 s

Time = 3.05

Courant Number mean: 0.010653 max: 0.130103
smoothSolver:  Solving for Ux, Initial residual = 0.000614974, Final residual = 9.43067e-06, No Iterations 4
smoothSolver:  Solving for Uy, Initial residual = 0.0017895, Final residual = 9.84823e-06, No Iterations 4
DICPCG:  Solving for p, Initial residual = 0.00406965, Final residual = 0.00019136, No Iterations 98
time step continuity errors : sum local = 1.03283e-09, global = 3.74443e-11, cumulative = -1.01596e-07
DICPCG:  Solving for p, Initial residual = 0.00173021, Final residual = 9.8146e-07, No Iterations 319
time step continuity errors : sum local = 5.29017e-12, global = 6.6181e-14, cumulative = -1.01596e-07
ExecutionTime = 36.65 s  ClockTime = 37 s

Time = 3.1

Courant Number mean: 0.0106503 max: 0.129595
smoothSolver:  Solving for Ux, Initial residual = 0.000604189, Final residual = 9.23013e-06, No Iterations 4
smoothSolver:  Solving for Uy, Initial residual = 0.00176651, Final residual = 9.68769e-06, No Iterations 4
DICPCG:  Solving for p, Initial residual = 0.00400368, Final residual = 0.000193092, No Iterations 98
time step continuity errors : sum local = 1.03771e-09, global = 3.01287e-11, cumulative = -1.01566e-07
DICPCG:  Solving for p, Initial residual = 0.00168889, Final residual = 9.11676e-07, No Iterations 318
time step continuity errors : sum local = 4.89326e-12, global = 4.40214e-14, cumulative = -1.01566e-07
ExecutionTime = 37.15 s  ClockTime = 37 s

Time = 3.15

Courant Number mean: 0.0106476 max: 0.129093
smoothSolver:  Solving for Ux, Initial residual = 0.000594075, Final residual = 9.03351e-06, No Iterations 4
smoothSolver:  Solving for Uy, Initial residual = 0.00174481, Final residual = 9.49987e-06, No Iterations 4
DICPCG:  Solving for p, Initial residual = 0.0039387, Final residual = 0.000187901, No Iterations 98
time step continuity errors : sum local = 1.00582e-09, global = 3.14888e-11, cumulative = -1.01534e-07
DICPCG:  Solving for p, Initial residual = 0.00166699, Final residual = 9.31625e-07, No Iterations 318
time step continuity errors : sum local = 4.98073e-12, global = 5.18211e-14, cumulative = -1.01534e-07
ExecutionTime = 37.67 s  ClockTime = 38 s

Time = 3.2

Courant Number mean: 0.0106449 max: 0.128597
smoothSolver:  Solving for Ux, Initial residual = 0.000584176, Final residual = 8.8433e-06, No Iterations 4
smoothSolver:  Solving for Uy, Initial residual = 0.00172344, Final residual = 9.32575e-06, No Iterations 4
DICPCG:  Solving for p, Initial residual = 0.00390995, Final residual = 0.000187302, No Iterations 98
time step continuity errors : sum local = 9.98693e-10, global = 3.08001e-11, cumulative = -1.01503e-07
DICPCG:  Solving for p, Initial residual = 0.00164976, Final residual = 9.16322e-07, No Iterations 318
time step continuity errors : sum local = 4.87998e-12, global = 4.95173e-14, cumulative = -1.01503e-07
ExecutionTime = 38.18 s  ClockTime = 38 s

Time = 3.25

Courant Number mean: 0.0106422 max: 0.128107
smoothSolver:  Solving for Ux, Initial residual = 0.000574563, Final residual = 8.65925e-06, No Iterations 4
smoothSolver:  Solving for Uy, Initial residual = 0.00170247, Final residual = 9.15565e-06, No Iterations 4
DICPCG:  Solving for p, Initial residual = 0.00389969, Final residual = 0.000185208, No Iterations 98
time step continuity errors : sum local = 9.83789e-10, global = 3.03885e-11, cumulative = -1.01473e-07
DICPCG:  Solving for p, Initial residual = 0.00163691, Final residual = 9.81144e-07, No Iterations 317
time step continuity errors : sum local = 5.20575e-12, global = 4.46726e-14, cumulative = -1.01473e-07
ExecutionTime = 38.69 s  ClockTime = 39 s

Time = 3.3

Courant Number mean: 0.0106396 max: 0.127623
smoothSolver:  Solving for Ux, Initial residual = 0.00056521, Final residual = 8.48113e-06, No Iterations 4
smoothSolver:  Solving for Uy, Initial residual = 0.00168198, Final residual = 8.98979e-06, No Iterations 4
DICPCG:  Solving for p, Initial residual = 0.00387081, Final residual = 0.000184237, No Iterations 98
time step continuity errors : sum local = 9.74955e-10, global = 2.96263e-11, cumulative = -1.01443e-07
DICPCG:  Solving for p, Initial residual = 0.00162876, Final residual = 9.53389e-07, No Iterations 317
time step continuity errors : sum local = 5.03918e-12, global = 4.06363e-14, cumulative = -1.01443e-07
ExecutionTime = 39.19 s  ClockTime = 39 s

Time = 3.35

Courant Number mean: 0.010637 max: 0.127144
smoothSolver:  Solving for Ux, Initial residual = 0.0005561, Final residual = 8.30862e-06, No Iterations 4
smoothSolver:  Solving for Uy, Initial residual = 0.00166183, Final residual = 8.82945e-06, No Iterations 4
DICPCG:  Solving for p, Initial residual = 0.00379903, Final residual = 0.000180177, No Iterations 98
time step continuity errors : sum local = 9.49868e-10, global = 2.94634e-11, cumulative = -1.01414e-07
DICPCG:  Solving for p, Initial residual = 0.0016043, Final residual = 9.46445e-07, No Iterations 317
time step continuity errors : sum local = 4.98374e-12, global = 4.34943e-14, cumulative = -1.01414e-07
ExecutionTime = 39.7 s  ClockTime = 40 s

Time = 3.4

Courant Number mean: 0.0106344 max: 0.126672
smoothSolver:  Solving for Ux, Initial residual = 0.000547226, Final residual = 8.14146e-06, No Iterations 4
smoothSolver:  Solving for Uy, Initial residual = 0.00164212, Final residual = 8.67414e-06, No Iterations 4
DICPCG:  Solving for p, Initial residual = 0.0037258, Final residual = 0.000177277, No Iterations 98
time step continuity errors : sum local = 9.31129e-10, global = 2.92339e-11, cumulative = -1.01384e-07
DICPCG:  Solving for p, Initial residual = 0.00157559, Final residual = 9.39998e-07, No Iterations 317
time step continuity errors : sum local = 4.93172e-12, global = 4.24967e-14, cumulative = -1.01384e-07
ExecutionTime = 40.21 s  ClockTime = 40 s

Time = 3.45

Courant Number mean: 0.0106319 max: 0.126204
smoothSolver:  Solving for Ux, Initial residual = 0.00053859, Final residual = 7.97943e-06, No Iterations 4
smoothSolver:  Solving for Uy, Initial residual = 0.00162279, Final residual = 8.52212e-06, No Iterations 4
DICPCG:  Solving for p, Initial residual = 0.00368003, Final residual = 0.000175206, No Iterations 98
time step continuity errors : sum local = 9.16953e-10, global = 2.88177e-11, cumulative = -1.01355e-07
DICPCG:  Solving for p, Initial residual = 0.00155943, Final residual = 8.97857e-07, No Iterations 317
time step continuity errors : sum local = 4.69399e-12, global = 4.01655e-14, cumulative = -1.01355e-07
ExecutionTime = 40.73 s  ClockTime = 41 s

Time = 3.5

Courant Number mean: 0.0106294 max: 0.125742
smoothSolver:  Solving for Ux, Initial residual = 0.000530178, Final residual = 7.82247e-06, No Iterations 4
smoothSolver:  Solving for Uy, Initial residual = 0.00160375, Final residual = 8.37387e-06, No Iterations 4
DICPCG:  Solving for p, Initial residual = 0.00363258, Final residual = 0.000172125, No Iterations 98
time step continuity errors : sum local = 8.97655e-10, global = 2.84062e-11, cumulative = -1.01327e-07
DICPCG:  Solving for p, Initial residual = 0.00154145, Final residual = 8.99187e-07, No Iterations 317
time step continuity errors : sum local = 4.68434e-12, global = 3.72593e-14, cumulative = -1.01327e-07
ExecutionTime = 41.69 s  ClockTime = 42 s

Time = 3.55

Courant Number mean: 0.0106269 max: 0.125286
smoothSolver:  Solving for Ux, Initial residual = 0.000521978, Final residual = 7.67024e-06, No Iterations 4
smoothSolver:  Solving for Uy, Initial residual = 0.00158506, Final residual = 8.23108e-06, No Iterations 4
DICPCG:  Solving for p, Initial residual = 0.00359916, Final residual = 0.000170564, No Iterations 98
time step continuity errors : sum local = 8.86428e-10, global = 2.80127e-11, cumulative = -1.01299e-07
DICPCG:  Solving for p, Initial residual = 0.00152535, Final residual = 9.92827e-07, No Iterations 316
time step continuity errors : sum local = 5.15449e-12, global = 3.88225e-14, cumulative = -1.01299e-07
ExecutionTime = 42.21 s  ClockTime = 42 s

Time = 3.6

Courant Number mean: 0.0106245 max: 0.124834
smoothSolver:  Solving for Ux, Initial residual = 0.000513983, Final residual = 7.52266e-06, No Iterations 4
smoothSolver:  Solving for Uy, Initial residual = 0.00156666, Final residual = 8.09122e-06, No Iterations 4
DICPCG:  Solving for p, Initial residual = 0.00355961, Final residual = 0.000169128, No Iterations 98
time step continuity errors : sum local = 8.75967e-10, global = 2.76258e-11, cumulative = -1.01271e-07
DICPCG:  Solving for p, Initial residual = 0.00150929, Final residual = 9.70042e-07, No Iterations 316
time step continuity errors : sum local = 5.01892e-12, global = 3.75677e-14, cumulative = -1.01271e-07
ExecutionTime = 42.71 s  ClockTime = 43 s

Time = 3.65

Courant Number mean: 0.010622 max: 0.124388
smoothSolver:  Solving for Ux, Initial residual = 0.000506193, Final residual = 7.37928e-06, No Iterations 4
smoothSolver:  Solving for Uy, Initial residual = 0.00154876, Final residual = 7.95512e-06, No Iterations 4
DICPCG:  Solving for p, Initial residual = 0.0035154, Final residual = 0.000166499, No Iterations 98
time step continuity errors : sum local = 8.5943e-10, global = 2.74247e-11, cumulative = -1.01244e-07
DICPCG:  Solving for p, Initial residual = 0.00149231, Final residual = 9.65245e-07, No Iterations 316
time step continuity errors : sum local = 4.97734e-12, global = 3.84502e-14, cumulative = -1.01244e-07
ExecutionTime = 43.22 s  ClockTime = 43 s

Time = 3.7

Courant Number mean: 0.0106196 max: 0.123947
smoothSolver:  Solving for Ux, Initial residual = 0.000498591, Final residual = 7.24023e-06, No Iterations 4
smoothSolver:  Solving for Uy, Initial residual = 0.00153107, Final residual = 7.82184e-06, No Iterations 4
DICPCG:  Solving for p, Initial residual = 0.00348163, Final residual = 0.000164533, No Iterations 98
time step continuity errors : sum local = 8.46495e-10, global = 2.68203e-11, cumulative = -1.01217e-07
DICPCG:  Solving for p, Initial residual = 0.00147612, Final residual = 9.52925e-07, No Iterations 316
time step continuity errors : sum local = 4.89806e-12, global = 3.61724e-14, cumulative = -1.01217e-07
ExecutionTime = 43.72 s  ClockTime = 44 s

Time = 3.75

Courant Number mean: 0.0106172 max: 0.123511
smoothSolver:  Solving for Ux, Initial residual = 0.000491176, Final residual = 7.10514e-06, No Iterations 4
smoothSolver:  Solving for Uy, Initial residual = 0.0015137, Final residual = 7.69266e-06, No Iterations 4
DICPCG:  Solving for p, Initial residual = 0.0034604, Final residual = 0.000164124, No Iterations 98
time step continuity errors : sum local = 8.4167e-10, global = 2.67136e-11, cumulative = -1.0119e-07
DICPCG:  Solving for p, Initial residual = 0.00146439, Final residual = 9.26459e-07, No Iterations 316
time step continuity errors : sum local = 4.7465e-12, global = 3.6683e-14, cumulative = -1.0119e-07
ExecutionTime = 44.23 s  ClockTime = 44 s

Time = 3.8

Courant Number mean: 0.0106149 max: 0.123079
smoothSolver:  Solving for Ux, Initial residual = 0.000483932, Final residual = 6.97392e-06, No Iterations 4
smoothSolver:  Solving for Uy, Initial residual = 0.00149667, Final residual = 7.56682e-06, No Iterations 4
DICPCG:  Solving for p, Initial residual = 0.00339481, Final residual = 0.000160844, No Iterations 98
time step continuity errors : sum local = 8.22187e-10, global = 2.62346e-11, cumulative = -1.01164e-07
DICPCG:  Solving for p, Initial residual = 0.00144617, Final residual = 9.15536e-07, No Iterations 316
time step continuity errors : sum local = 4.6755e-12, global = 3.34092e-14, cumulative = -1.01164e-07
ExecutionTime = 44.75 s  ClockTime = 45 s

Time = 3.85

Courant Number mean: 0.0106125 max: 0.122653
smoothSolver:  Solving for Ux, Initial residual = 0.000476872, Final residual = 6.8464e-06, No Iterations 4
smoothSolver:  Solving for Uy, Initial residual = 0.00147991, Final residual = 7.44423e-06, No Iterations 4
DICPCG:  Solving for p, Initial residual = 0.00336248, Final residual = 0.00015886, No Iterations 98
time step continuity errors : sum local = 8.09502e-10, global = 2.6161e-11, cumulative = -1.01138e-07
DICPCG:  Solving for p, Initial residual = 0.00143124, Final residual = 9.13642e-07, No Iterations 316
time step continuity errors : sum local = 4.65145e-12, global = 3.48314e-14, cumulative = -1.01138e-07
ExecutionTime = 45.25 s  ClockTime = 45 s

Time = 3.9

Courant Number mean: 0.0106102 max: 0.122231
smoothSolver:  Solving for Ux, Initial residual = 0.000469981, Final residual = 6.72246e-06, No Iterations 4
smoothSolver:  Solving for Uy, Initial residual = 0.00146346, Final residual = 7.32481e-06, No Iterations 4
DICPCG:  Solving for p, Initial residual = 0.00331739, Final residual = 0.0001567, No Iterations 98
time step continuity errors : sum local = 7.96045e-10, global = 2.55043e-11, cumulative = -1.01112e-07
DICPCG:  Solving for p, Initial residual = 0.00141417, Final residual = 9.01507e-07, No Iterations 316
time step continuity errors : sum local = 4.57559e-12, global = 3.27633e-14, cumulative = -1.01112e-07
ExecutionTime = 45.76 s  ClockTime = 46 s

Time = 3.95

Courant Number mean: 0.0106079 max: 0.121813
smoothSolver:  Solving for Ux, Initial residual = 0.000463249, Final residual = 6.60184e-06, No Iterations 4
smoothSolver:  Solving for Uy, Initial residual = 0.00144732, Final residual = 7.20822e-06, No Iterations 4
DICPCG:  Solving for p, Initial residual = 0.00326903, Final residual = 0.000154595, No Iterations 98
time step continuity errors : sum local = 7.82978e-10, global = 2.52703e-11, cumulative = -1.01087e-07
DICPCG:  Solving for p, Initial residual = 0.00139568, Final residual = 9.81549e-07, No Iterations 315
time step continuity errors : sum local = 4.96698e-12, global = 3.7497e-14, cumulative = -1.01087e-07
ExecutionTime = 46.26 s  ClockTime = 46 s

Time = 4

Courant Number mean: 0.0106057 max: 0.121401
smoothSolver:  Solving for Ux, Initial residual = 0.000456676, Final residual = 6.48471e-06, No Iterations 4
smoothSolver:  Solving for Uy, Initial residual = 0.0014314, Final residual = 7.09461e-06, No Iterations 4
DICPCG:  Solving for p, Initial residual = 0.0032464, Final residual = 0.000152668, No Iterations 98
time step continuity errors : sum local = 7.70958e-10, global = 2.49953e-11, cumulative = -1.01062e-07
DICPCG:  Solving for p, Initial residual = 0.00138055, Final residual = 9.75183e-07, No Iterations 315
time step continuity errors : sum local = 4.92052e-12, global = 3.86439e-14, cumulative = -1.01062e-07
ExecutionTime = 47.25 s  ClockTime = 47 s

Time = 4.05

Courant Number mean: 0.0106034 max: 0.120992
smoothSolver:  Solving for Ux, Initial residual = 0.000450256, Final residual = 6.37066e-06, No Iterations 4
smoothSolver:  Solving for Uy, Initial residual = 0.00141581, Final residual = 6.98358e-06, No Iterations 4
DICPCG:  Solving for p, Initial residual = 0.00321389, Final residual = 0.00015109, No Iterations 98
time step continuity errors : sum local = 7.60805e-10, global = 2.45646e-11, cumulative = -1.01037e-07
DICPCG:  Solving for p, Initial residual = 0.00136875, Final residual = 9.29935e-07, No Iterations 315
time step continuity errors : sum local = 4.67891e-12, global = 3.33601e-14, cumulative = -1.01037e-07
ExecutionTime = 47.76 s  ClockTime = 48 s

Time = 4.1

Courant Number mean: 0.0106012 max: 0.120588
smoothSolver:  Solving for Ux, Initial residual = 0.000443978, Final residual = 6.25959e-06, No Iterations 4
smoothSolver:  Solving for Uy, Initial residual = 0.00140048, Final residual = 6.87623e-06, No Iterations 4
DICPCG:  Solving for p, Initial residual = 0.00319025, Final residual = 0.000150351, No Iterations 98
time step continuity errors : sum local = 7.54942e-10, global = 2.43833e-11, cumulative = -1.01013e-07
DICPCG:  Solving for p, Initial residual = 0.00135731, Final residual = 9.3095e-07, No Iterations 315
time step continuity errors : sum local = 4.67073e-12, global = 3.31514e-14, cumulative = -1.01013e-07
ExecutionTime = 48.27 s  ClockTime = 48 s

Time = 4.15

Courant Number mean: 0.010599 max: 0.120188
smoothSolver:  Solving for Ux, Initial residual = 0.000437844, Final residual = 6.15144e-06, No Iterations 4
smoothSolver:  Solving for Uy, Initial residual = 0.00138546, Final residual = 6.77106e-06, No Iterations 4
DICPCG:  Solving for p, Initial residual = 0.00317603, Final residual = 0.00014951, No Iterations 98
time step continuity errors : sum local = 7.48618e-10, global = 2.40295e-11, cumulative = -1.00989e-07
DICPCG:  Solving for p, Initial residual = 0.00135114, Final residual = 9.44294e-07, No Iterations 315
time step continuity errors : sum local = 4.72449e-12, global = 3.82595e-14, cumulative = -1.00989e-07
ExecutionTime = 48.77 s  ClockTime = 49 s

Time = 4.2

Courant Number mean: 0.0105968 max: 0.119792
smoothSolver:  Solving for Ux, Initial residual = 0.000431849, Final residual = 6.04637e-06, No Iterations 4
smoothSolver:  Solving for Uy, Initial residual = 0.00137063, Final residual = 6.66802e-06, No Iterations 4
DICPCG:  Solving for p, Initial residual = 0.00311942, Final residual = 0.000148133, No Iterations 98
time step continuity errors : sum local = 7.39673e-10, global = 2.36756e-11, cumulative = -1.00965e-07
DICPCG:  Solving for p, Initial residual = 0.00133096, Final residual = 9.93296e-07, No Iterations 314
time step continuity errors : sum local = 4.95602e-12, global = 3.82622e-14, cumulative = -1.00965e-07
ExecutionTime = 49.28 s  ClockTime = 49 s

Time = 4.25

Courant Number mean: 0.0105946 max: 0.119401
smoothSolver:  Solving for Ux, Initial residual = 0.000425988, Final residual = 5.94382e-06, No Iterations 4
smoothSolver:  Solving for Uy, Initial residual = 0.00135609, Final residual = 6.56761e-06, No Iterations 4
DICPCG:  Solving for p, Initial residual = 0.00306128, Final residual = 0.000144549, No Iterations 98
time step continuity errors : sum local = 7.19816e-10, global = 2.34935e-11, cumulative = -1.00942e-07
DICPCG:  Solving for p, Initial residual = 0.00131146, Final residual = 9.87051e-07, No Iterations 314
time step continuity errors : sum local = 4.91153e-12, global = 3.983e-14, cumulative = -1.00942e-07
ExecutionTime = 49.79 s  ClockTime = 50 s

Time = 4.3

Courant Number mean: 0.0105925 max: 0.119013
smoothSolver:  Solving for Ux, Initial residual = 0.000420257, Final residual = 5.84391e-06, No Iterations 4
smoothSolver:  Solving for Uy, Initial residual = 0.00134177, Final residual = 6.46975e-06, No Iterations 4
DICPCG:  Solving for p, Initial residual = 0.00304536, Final residual = 0.000143063, No Iterations 98
time step continuity errors : sum local = 7.10502e-10, global = 2.29977e-11, cumulative = -1.00919e-07
DICPCG:  Solving for p, Initial residual = 0.00130345, Final residual = 9.68138e-07, No Iterations 314
time step continuity errors : sum local = 4.80452e-12, global = 3.61671e-14, cumulative = -1.00918e-07
ExecutionTime = 50.29 s  ClockTime = 50 s

Time = 4.35

Courant Number mean: 0.0105904 max: 0.118629
smoothSolver:  Solving for Ux, Initial residual = 0.000414654, Final residual = 5.74654e-06, No Iterations 4
smoothSolver:  Solving for Uy, Initial residual = 0.00132768, Final residual = 6.37381e-06, No Iterations 4
DICPCG:  Solving for p, Initial residual = 0.00300283, Final residual = 0.000141022, No Iterations 98
time step continuity errors : sum local = 6.9853e-10, global = 2.29402e-11, cumulative = -1.00896e-07
DICPCG:  Solving for p, Initial residual = 0.00128584, Final residual = 9.59809e-07, No Iterations 314
time step continuity errors : sum local = 4.75087e-12, global = 3.83163e-14, cumulative = -1.00896e-07
ExecutionTime = 50.8 s  ClockTime = 51 s

Time = 4.4

Courant Number mean: 0.0105883 max: 0.11825
smoothSolver:  Solving for Ux, Initial residual = 0.00040917, Final residual = 5.65154e-06, No Iterations 4
smoothSolver:  Solving for Uy, Initial residual = 0.00131385, Final residual = 6.28092e-06, No Iterations 4
DICPCG:  Solving for p, Initial residual = 0.00296104, Final residual = 0.000139208, No Iterations 98
time step continuity errors : sum local = 6.87789e-10, global = 2.26285e-11, cumulative = -1.00873e-07
DICPCG:  Solving for p, Initial residual = 0.00127027, Final residual = 9.50541e-07, No Iterations 314
time step continuity errors : sum local = 4.6932e-12, global = 3.78929e-14, cumulative = -1.00873e-07
ExecutionTime = 51.3 s  ClockTime = 51 s

Time = 4.45

Courant Number mean: 0.0105862 max: 0.117874
smoothSolver:  Solving for Ux, Initial residual = 0.000403807, Final residual = 5.55897e-06, No Iterations 4
smoothSolver:  Solving for Uy, Initial residual = 0.00130022, Final residual = 6.18973e-06, No Iterations 4
DICPCG:  Solving for p, Initial residual = 0.00293356, Final residual = 0.000138142, No Iterations 98
time step continuity errors : sum local = 6.80846e-10, global = 2.2308e-11, cumulative = -1.00851e-07
DICPCG:  Solving for p, Initial residual = 0.0012583, Final residual = 9.35428e-07, No Iterations 314
time step continuity errors : sum local = 4.60741e-12, global = 3.648e-14, cumulative = -1.0085e-07
ExecutionTime = 51.81 s  ClockTime = 52 s

Time = 4.5

Courant Number mean: 0.0105841 max: 0.117502
smoothSolver:  Solving for Ux, Initial residual = 0.000398558, Final residual = 5.46865e-06, No Iterations 4
smoothSolver:  Solving for Uy, Initial residual = 0.00128682, Final residual = 6.10062e-06, No Iterations 4
DICPCG:  Solving for p, Initial residual = 0.00292568, Final residual = 0.000138873, No Iterations 98
time step continuity errors : sum local = 6.82829e-10, global = 2.19744e-11, cumulative = -1.00829e-07
DICPCG:  Solving for p, Initial residual = 0.00125191, Final residual = 9.19871e-07, No Iterations 314
time step continuity errors : sum local = 4.52026e-12, global = 3.66359e-14, cumulative = -1.00828e-07
ExecutionTime = 52.79 s  ClockTime = 53 s

Time = 4.55

Courant Number mean: 0.010582 max: 0.117133
smoothSolver:  Solving for Ux, Initial residual = 0.000393419, Final residual = 5.38056e-06, No Iterations 4
smoothSolver:  Solving for Uy, Initial residual = 0.00127363, Final residual = 6.01358e-06, No Iterations 4
DICPCG:  Solving for p, Initial residual = 0.00290165, Final residual = 0.000135938, No Iterations 98
time step continuity errors : sum local = 6.66854e-10, global = 2.18393e-11, cumulative = -1.00807e-07
DICPCG:  Solving for p, Initial residual = 0.0012413, Final residual = 9.86723e-07, No Iterations 313
time step continuity errors : sum local = 4.83757e-12, global = 3.91522e-14, cumulative = -1.00807e-07
ExecutionTime = 53.31 s  ClockTime = 53 s

Time = 4.6

Courant Number mean: 0.01058 max: 0.116768
smoothSolver:  Solving for Ux, Initial residual = 0.00038839, Final residual = 5.29452e-06, No Iterations 4
smoothSolver:  Solving for Uy, Initial residual = 0.00126068, Final residual = 5.92828e-06, No Iterations 4
DICPCG:  Solving for p, Initial residual = 0.00291517, Final residual = 0.000137161, No Iterations 98
time step continuity errors : sum local = 6.71318e-10, global = 2.14127e-11, cumulative = -1.00785e-07
DICPCG:  Solving for p, Initial residual = 0.00123707, Final residual = 9.76365e-07, No Iterations 313
time step continuity errors : sum local = 4.77593e-12, global = 3.91314e-14, cumulative = -1.00785e-07
ExecutionTime = 53.81 s  ClockTime = 54 s

Time = 4.65

Courant Number mean: 0.010578 max: 0.116407
smoothSolver:  Solving for Ux, Initial residual = 0.000383464, Final residual = 5.21042e-06, No Iterations 4
smoothSolver:  Solving for Uy, Initial residual = 0.00124797, Final residual = 5.84485e-06, No Iterations 4
DICPCG:  Solving for p, Initial residual = 0.00288299, Final residual = 0.000134658, No Iterations 98
time step continuity errors : sum local = 6.57575e-10, global = 2.1137e-11, cumulative = -1.00764e-07
DICPCG:  Solving for p, Initial residual = 0.00122319, Final residual = 9.65935e-07, No Iterations 313
time step continuity errors : sum local = 4.71421e-12, global = 3.53439e-14, cumulative = -1.00764e-07
ExecutionTime = 54.32 s  ClockTime = 54 s

Time = 4.7

Courant Number mean: 0.010576 max: 0.116049
smoothSolver:  Solving for Ux, Initial residual = 0.000378635, Final residual = 5.12837e-06, No Iterations 4
smoothSolver:  Solving for Uy, Initial residual = 0.00123546, Final residual = 5.76397e-06, No Iterations 4
DICPCG:  Solving for p, Initial residual = 0.00286635, Final residual = 0.000132518, No Iterations 98
time step continuity errors : sum local = 6.45713e-10, global = 2.07779e-11, cumulative = -1.00743e-07
DICPCG:  Solving for p, Initial residual = 0.0012134, Final residual = 9.53233e-07, No Iterations 313
time step continuity errors : sum local = 4.64238e-12, global = 3.70135e-14, cumulative = -1.00743e-07
ExecutionTime = 54.83 s  ClockTime = 55 s

Time = 4.75

Courant Number mean: 0.010574 max: 0.115694
smoothSolver:  Solving for Ux, Initial residual = 0.00037391, Final residual = 5.04827e-06, No Iterations 4
smoothSolver:  Solving for Uy, Initial residual = 0.00122314, Final residual = 5.68455e-06, No Iterations 4
DICPCG:  Solving for p, Initial residual = 0.00282766, Final residual = 0.000132523, No Iterations 98
time step continuity errors : sum local = 6.44368e-10, global = 2.0844e-11, cumulative = -1.00722e-07
DICPCG:  Solving for p, Initial residual = 0.00120268, Final residual = 9.36363e-07, No Iterations 313
time step continuity errors : sum local = 4.55052e-12, global = 3.6607e-14, cumulative = -1.00722e-07
ExecutionTime = 55.33 s  ClockTime = 55 s

Time = 4.8

Courant Number mean: 0.0105721 max: 0.115343
smoothSolver:  Solving for Ux, Initial residual = 0.000369282, Final residual = 4.97013e-06, No Iterations 4
smoothSolver:  Solving for Uy, Initial residual = 0.00121101, Final residual = 5.60717e-06, No Iterations 4
DICPCG:  Solving for p, Initial residual = 0.00276202, Final residual = 0.000129134, No Iterations 98
time step continuity errors : sum local = 6.26588e-10, global = 2.05406e-11, cumulative = -1.00702e-07
DICPCG:  Solving for p, Initial residual = 0.00118074, Final residual = 9.22852e-07, No Iterations 313
time step continuity errors : sum local = 4.4757e-12, global = 3.55714e-14, cumulative = -1.00702e-07
ExecutionTime = 55.83 s  ClockTime = 56 s

Time = 4.85

Courant Number mean: 0.0105701 max: 0.114995
smoothSolver:  Solving for Ux, Initial residual = 0.000364748, Final residual = 4.89366e-06, No Iterations 4
smoothSolver:  Solving for Uy, Initial residual = 0.00119909, Final residual = 5.53178e-06, No Iterations 4
DICPCG:  Solving for p, Initial residual = 0.00274146, Final residual = 0.000128018, No Iterations 98
time step continuity errors : sum local = 6.19935e-10, global = 2.03379e-11, cumulative = -1.00681e-07
DICPCG:  Solving for p, Initial residual = 0.00117102, Final residual = 9.90342e-07, No Iterations 312
time step continuity errors : sum local = 4.79361e-12, global = 3.43384e-14, cumulative = -1.00681e-07
ExecutionTime = 56.34 s  ClockTime = 56 s

Time = 4.9

Courant Number mean: 0.0105682 max: 0.114651
smoothSolver:  Solving for Ux, Initial residual = 0.000360306, Final residual = 4.81894e-06, No Iterations 4
smoothSolver:  Solving for Uy, Initial residual = 0.00118735, Final residual = 5.45749e-06, No Iterations 4
DICPCG:  Solving for p, Initial residual = 0.00272228, Final residual = 0.0001267, No Iterations 98
time step continuity errors : sum local = 6.12367e-10, global = 1.99936e-11, cumulative = -1.00661e-07
DICPCG:  Solving for p, Initial residual = 0.00116264, Final residual = 9.80111e-07, No Iterations 312
time step continuity errors : sum local = 4.73499e-12, global = 3.33429e-14, cumulative = -1.00661e-07
ExecutionTime = 56.84 s  ClockTime = 57 s

Time = 4.95

Courant Number mean: 0.0105663 max: 0.114309
smoothSolver:  Solving for Ux, Initial residual = 0.000355953, Final residual = 9.99774e-06, No Iterations 3
smoothSolver:  Solving for Uy, Initial residual = 0.00117582, Final residual = 5.38485e-06, No Iterations 4
DICPCG:  Solving for p, Initial residual = 0.00327046, Final residual = 0.000161909, No Iterations 104
time step continuity errors : sum local = 7.81009e-10, global = 9.52848e-11, cumulative = -1.00566e-07
DICPCG:  Solving for p, Initial residual = 0.00212578, Final residual = 9.81163e-07, No Iterations 328
time step continuity errors : sum local = 4.73013e-12, global = -1.42863e-14, cumulative = -1.00566e-07
ExecutionTime = 57.37 s  ClockTime = 57 s

Time = 5

Courant Number mean: 0.0105645 max: 0.113977
smoothSolver:  Solving for Ux, Initial residual = 0.000349193, Final residual = 9.9438e-06, No Iterations 3
smoothSolver:  Solving for Uy, Initial residual = 0.00115131, Final residual = 5.34957e-06, No Iterations 4
DICPCG:  Solving for p, Initial residual = 0.00318759, Final residual = 0.000153488, No Iterations 100
time step continuity errors : sum local = 7.3759e-10, global = 3.4672e-11, cumulative = -1.00531e-07
DICPCG:  Solving for p, Initial residual = 0.00195449, Final residual = 9.56156e-07, No Iterations 321
time step continuity errors : sum local = 4.59393e-12, global = 3.25029e-14, cumulative = -1.00531e-07
ExecutionTime = 58.34 s  ClockTime = 58 s

Time = 5.05

Courant Number mean: 0.0105626 max: 0.113646
smoothSolver:  Solving for Ux, Initial residual = 0.00034561, Final residual = 9.79586e-06, No Iterations 3
smoothSolver:  Solving for Uy, Initial residual = 0.00114276, Final residual = 5.27596e-06, No Iterations 4
DICPCG:  Solving for p, Initial residual = 0.00316958, Final residual = 0.000155901, No Iterations 100
time step continuity errors : sum local = 7.48204e-10, global = 4.83246e-11, cumulative = -1.00483e-07
DICPCG:  Solving for p, Initial residual = 0.00196724, Final residual = 9.87041e-07, No Iterations 323
time step continuity errors : sum local = 4.73536e-12, global = 4.1262e-14, cumulative = -1.00483e-07
ExecutionTime = 58.86 s  ClockTime = 59 s

Time = 5.1

Courant Number mean: 0.0105608 max: 0.113317
smoothSolver:  Solving for Ux, Initial residual = 0.000341527, Final residual = 9.66458e-06, No Iterations 3
smoothSolver:  Solving for Uy, Initial residual = 0.00113167, Final residual = 5.20994e-06, No Iterations 4
DICPCG:  Solving for p, Initial residual = 0.00311401, Final residual = 0.000154262, No Iterations 100
time step continuity errors : sum local = 7.38936e-10, global = 4.44713e-11, cumulative = -1.00438e-07
DICPCG:  Solving for p, Initial residual = 0.00194114, Final residual = 9.71411e-07, No Iterations 321
time step continuity errors : sum local = 4.65202e-12, global = 5.19774e-14, cumulative = -1.00438e-07
ExecutionTime = 59.37 s  ClockTime = 59 s

Time = 5.15

Courant Number mean: 0.010559 max: 0.112992
smoothSolver:  Solving for Ux, Initial residual = 0.000337629, Final residual = 9.53228e-06, No Iterations 3
smoothSolver:  Solving for Uy, Initial residual = 0.00112125, Final residual = 5.14403e-06, No Iterations 4
DICPCG:  Solving for p, Initial residual = 0.00310257, Final residual = 0.000153935, No Iterations 100
time step continuity errors : sum local = 7.36149e-10, global = 4.4848e-11, cumulative = -1.00394e-07
DICPCG:  Solving for p, Initial residual = 0.00192857, Final residual = 9.93441e-07, No Iterations 321
time step continuity errors : sum local = 4.74966e-12, global = 5.06724e-14, cumulative = -1.00394e-07
ExecutionTime = 59.9 s  ClockTime = 60 s

Time = 5.2

Courant Number mean: 0.0105572 max: 0.112669
smoothSolver:  Solving for Ux, Initial residual = 0.000333782, Final residual = 9.40279e-06, No Iterations 3
smoothSolver:  Solving for Uy, Initial residual = 0.0011109, Final residual = 5.08022e-06, No Iterations 4
DICPCG:  Solving for p, Initial residual = 0.00310483, Final residual = 0.000154461, No Iterations 100
time step continuity errors : sum local = 7.37427e-10, global = 4.40918e-11, cumulative = -1.00349e-07
DICPCG:  Solving for p, Initial residual = 0.00191952, Final residual = 9.83942e-07, No Iterations 321
time step continuity errors : sum local = 4.69635e-12, global = 5.15977e-14, cumulative = -1.00349e-07
ExecutionTime = 60.41 s  ClockTime = 60 s

Time = 5.25

Courant Number mean: 0.0105554 max: 0.112349
smoothSolver:  Solving for Ux, Initial residual = 0.00033002, Final residual = 9.27571e-06, No Iterations 3
smoothSolver:  Solving for Uy, Initial residual = 0.00110066, Final residual = 5.01772e-06, No Iterations 4
DICPCG:  Solving for p, Initial residual = 0.00306225, Final residual = 0.000152903, No Iterations 100
time step continuity errors : sum local = 7.28766e-10, global = 4.38294e-11, cumulative = -1.00306e-07
DICPCG:  Solving for p, Initial residual = 0.0018987, Final residual = 9.44838e-07, No Iterations 322
time step continuity errors : sum local = 4.5021e-12, global = 4.56266e-14, cumulative = -1.00306e-07
ExecutionTime = 60.91 s  ClockTime = 61 s

Time = 5.3

Courant Number mean: 0.0105536 max: 0.112032
smoothSolver:  Solving for Ux, Initial residual = 0.000326323, Final residual = 9.1507e-06, No Iterations 3
smoothSolver:  Solving for Uy, Initial residual = 0.00109065, Final residual = 4.95633e-06, No Iterations 4
DICPCG:  Solving for p, Initial residual = 0.00304563, Final residual = 0.000151614, No Iterations 100
time step continuity errors : sum local = 7.2139e-10, global = 4.31618e-11, cumulative = -1.00262e-07
DICPCG:  Solving for p, Initial residual = 0.00188546, Final residual = 9.4977e-07, No Iterations 321
time step continuity errors : sum local = 4.51776e-12, global = 4.97342e-14, cumulative = -1.00262e-07
ExecutionTime = 61.42 s  ClockTime = 61 s

Time = 5.35

Courant Number mean: 0.0105519 max: 0.111717
smoothSolver:  Solving for Ux, Initial residual = 0.000322689, Final residual = 9.02779e-06, No Iterations 3
smoothSolver:  Solving for Uy, Initial residual = 0.00108078, Final residual = 4.89598e-06, No Iterations 4
DICPCG:  Solving for p, Initial residual = 0.00297973, Final residual = 0.000135371, No Iterations 101
time step continuity errors : sum local = 6.43021e-10, global = 4.40802e-11, cumulative = -1.00218e-07
DICPCG:  Solving for p, Initial residual = 0.00185155, Final residual = 9.96527e-07, No Iterations 321
time step continuity errors : sum local = 4.73236e-12, global = 5.02471e-14, cumulative = -1.00218e-07
ExecutionTime = 61.92 s  ClockTime = 62 s

Time = 5.4

Courant Number mean: 0.0105501 max: 0.111406
smoothSolver:  Solving for Ux, Initial residual = 0.000319129, Final residual = 8.90722e-06, No Iterations 3
smoothSolver:  Solving for Uy, Initial residual = 0.00107109, Final residual = 4.83595e-06, No Iterations 4
DICPCG:  Solving for p, Initial residual = 0.00294797, Final residual = 0.000134238, No Iterations 101
time step continuity errors : sum local = 6.36625e-10, global = 4.37232e-11, cumulative = -1.00174e-07
DICPCG:  Solving for p, Initial residual = 0.00183967, Final residual = 9.42811e-07, No Iterations 322
time step continuity errors : sum local = 4.47032e-12, global = 4.46085e-14, cumulative = -1.00174e-07
ExecutionTime = 62.42 s  ClockTime = 62 s

Time = 5.45

Courant Number mean: 0.0105484 max: 0.111097
smoothSolver:  Solving for Ux, Initial residual = 0.000315631, Final residual = 8.78883e-06, No Iterations 3
smoothSolver:  Solving for Uy, Initial residual = 0.00106151, Final residual = 4.7779e-06, No Iterations 4
DICPCG:  Solving for p, Initial residual = 0.00293584, Final residual = 0.000146015, No Iterations 100
[...]
time step continuity errors : sum local = 3.6224e-12, global = 2.55436e-14, cumulative = -7.99411e-08
ExecutionTime = 420.05 s  ClockTime = 421 s

Time = 38.7

Courant Number mean: 0.0101532 max: 0.0826375
smoothSolver:  Solving for Ux, Initial residual = 4.1658e-05, Final residual = 3.64163e-06, No Iterations 1
smoothSolver:  Solving for Uy, Initial residual = 0.000165703, Final residual = 8.74382e-06, No Iterations 1
DICPCG:  Solving for p, Initial residual = 0.00106918, Final residual = 4.82958e-05, No Iterations 95
time step continuity errors : sum local = 1.82217e-10, global = 2.27046e-11, cumulative = -7.99184e-08
DICPCG:  Solving for p, Initial residual = 0.00105305, Final residual = 9.62166e-07, No Iterations 306
time step continuity errors : sum local = 3.62993e-12, global = 2.55356e-14, cumulative = -7.99184e-08
ExecutionTime = 420.51 s  ClockTime = 422 s

Time = 38.75

Courant Number mean: 0.0101529 max: 0.0826165
smoothSolver:  Solving for Ux, Initial residual = 4.16154e-05, Final residual = 3.63559e-06, No Iterations 1
smoothSolver:  Solving for Uy, Initial residual = 0.000165527, Final residual = 8.72877e-06, No Iterations 1
DICPCG:  Solving for p, Initial residual = 0.00106766, Final residual = 4.80827e-05, No Iterations 95
time step continuity errors : sum local = 1.81396e-10, global = 2.26789e-11, cumulative = -7.98957e-08
DICPCG:  Solving for p, Initial residual = 0.00105138, Final residual = 9.62583e-07, No Iterations 306
time step continuity errors : sum local = 3.63117e-12, global = 2.52872e-14, cumulative = -7.98957e-08
ExecutionTime = 420.99 s  ClockTime = 422 s

Time = 38.8

Courant Number mean: 0.0101526 max: 0.0825956
smoothSolver:  Solving for Ux, Initial residual = 4.15729e-05, Final residual = 3.62956e-06, No Iterations 1
smoothSolver:  Solving for Uy, Initial residual = 0.000165351, Final residual = 8.71377e-06, No Iterations 1
DICPCG:  Solving for p, Initial residual = 0.0010661, Final residual = 4.82599e-05, No Iterations 95
time step continuity errors : sum local = 1.82048e-10, global = 2.26509e-11, cumulative = -7.9873e-08
DICPCG:  Solving for p, Initial residual = 0.00104993, Final residual = 9.2968e-07, No Iterations 306
time step continuity errors : sum local = 3.50673e-12, global = 2.51286e-14, cumulative = -7.9873e-08
ExecutionTime = 421.46 s  ClockTime = 423 s

Time = 38.85

Courant Number mean: 0.0101523 max: 0.0825748
smoothSolver:  Solving for Ux, Initial residual = 4.15305e-05, Final residual = 3.62355e-06, No Iterations 1
smoothSolver:  Solving for Uy, Initial residual = 0.000165176, Final residual = 8.69882e-06, No Iterations 1
DICPCG:  Solving for p, Initial residual = 0.00106458, Final residual = 4.76991e-05, No Iterations 95
time step continuity errors : sum local = 1.79916e-10, global = 2.26234e-11, cumulative = -7.98504e-08
DICPCG:  Solving for p, Initial residual = 0.00104813, Final residual = 9.63379e-07, No Iterations 306
time step continuity errors : sum local = 3.6335e-12, global = 2.47707e-14, cumulative = -7.98504e-08
ExecutionTime = 421.93 s  ClockTime = 423 s

Time = 38.9

Courant Number mean: 0.010152 max: 0.0825539
smoothSolver:  Solving for Ux, Initial residual = 4.14882e-05, Final residual = 3.61756e-06, No Iterations 1
smoothSolver:  Solving for Uy, Initial residual = 0.000165001, Final residual = 8.68391e-06, No Iterations 1
DICPCG:  Solving for p, Initial residual = 0.00106303, Final residual = 4.80725e-05, No Iterations 95
time step continuity errors : sum local = 1.81308e-10, global = 2.25891e-11, cumulative = -7.98278e-08
DICPCG:  Solving for p, Initial residual = 0.001047, Final residual = 9.39982e-07, No Iterations 306
time step continuity errors : sum local = 3.54494e-12, global = 2.48827e-14, cumulative = -7.98278e-08
ExecutionTime = 422.39 s  ClockTime = 424 s

Time = 38.95

Courant Number mean: 0.0101517 max: 0.082533
smoothSolver:  Solving for Ux, Initial residual = 4.14459e-05, Final residual = 3.61159e-06, No Iterations 1
smoothSolver:  Solving for Uy, Initial residual = 0.000164826, Final residual = 8.66903e-06, No Iterations 1
DICPCG:  Solving for p, Initial residual = 0.00106155, Final residual = 4.76105e-05, No Iterations 95
time step continuity errors : sum local = 1.79549e-10, global = 2.25625e-11, cumulative = -7.98052e-08
DICPCG:  Solving for p, Initial residual = 0.00104522, Final residual = 9.59333e-07, No Iterations 306
time step continuity errors : sum local = 3.61759e-12, global = 2.46583e-14, cumulative = -7.98052e-08
ExecutionTime = 422.87 s  ClockTime = 424 s

Time = 39

Courant Number mean: 0.0101514 max: 0.0825122
smoothSolver:  Solving for Ux, Initial residual = 4.14038e-05, Final residual = 3.60563e-06, No Iterations 1
smoothSolver:  Solving for Uy, Initial residual = 0.000164652, Final residual = 8.65421e-06, No Iterations 1
DICPCG:  Solving for p, Initial residual = 0.00106003, Final residual = 4.78511e-05, No Iterations 95
time step continuity errors : sum local = 1.8044e-10, global = 2.25331e-11, cumulative = -7.97826e-08
DICPCG:  Solving for p, Initial residual = 0.00104381, Final residual = 9.32271e-07, No Iterations 306
time step continuity errors : sum local = 3.51522e-12, global = 2.50621e-14, cumulative = -7.97826e-08
ExecutionTime = 423.8 s  ClockTime = 425 s

Time = 39.05

Courant Number mean: 0.0101511 max: 0.0824914
smoothSolver:  Solving for Ux, Initial residual = 4.13618e-05, Final residual = 3.59969e-06, No Iterations 1
smoothSolver:  Solving for Uy, Initial residual = 0.000164478, Final residual = 8.63944e-06, No Iterations 1
DICPCG:  Solving for p, Initial residual = 0.00105859, Final residual = 4.75456e-05, No Iterations 95
time step continuity errors : sum local = 1.79272e-10, global = 2.25073e-11, cumulative = -7.97601e-08
DICPCG:  Solving for p, Initial residual = 0.00104214, Final residual = 9.50037e-07, No Iterations 306
time step continuity errors : sum local = 3.58189e-12, global = 2.44517e-14, cumulative = -7.97601e-08
ExecutionTime = 424.27 s  ClockTime = 425 s

Time = 39.1

Courant Number mean: 0.0101508 max: 0.0824706
smoothSolver:  Solving for Ux, Initial residual = 4.13199e-05, Final residual = 3.59377e-06, No Iterations 1
smoothSolver:  Solving for Uy, Initial residual = 0.000164304, Final residual = 8.6247e-06, No Iterations 1
DICPCG:  Solving for p, Initial residual = 0.00105708, Final residual = 4.77395e-05, No Iterations 95
time step continuity errors : sum local = 1.79987e-10, global = 2.24703e-11, cumulative = -7.97376e-08
DICPCG:  Solving for p, Initial residual = 0.00104103, Final residual = 9.60558e-07, No Iterations 306
time step continuity errors : sum local = 3.62124e-12, global = 2.49029e-14, cumulative = -7.97376e-08
ExecutionTime = 424.75 s  ClockTime = 426 s

Time = 39.15

Courant Number mean: 0.0101505 max: 0.0824498
smoothSolver:  Solving for Ux, Initial residual = 4.1278e-05, Final residual = 3.58787e-06, No Iterations 1
smoothSolver:  Solving for Uy, Initial residual = 0.000164131, Final residual = 8.60997e-06, No Iterations 1
DICPCG:  Solving for p, Initial residual = 0.00105578, Final residual = 4.74905e-05, No Iterations 95
time step continuity errors : sum local = 1.79032e-10, global = 2.24416e-11, cumulative = -7.97151e-08
DICPCG:  Solving for p, Initial residual = 0.00103939, Final residual = 9.54261e-07, No Iterations 306
time step continuity errors : sum local = 3.59717e-12, global = 2.51132e-14, cumulative = -7.97151e-08
ExecutionTime = 425.23 s  ClockTime = 426 s

Time = 39.2

Courant Number mean: 0.0101502 max: 0.082429
smoothSolver:  Solving for Ux, Initial residual = 4.12362e-05, Final residual = 3.58197e-06, No Iterations 1
smoothSolver:  Solving for Uy, Initial residual = 0.000163959, Final residual = 8.59534e-06, No Iterations 1
DICPCG:  Solving for p, Initial residual = 0.00105412, Final residual = 4.75303e-05, No Iterations 95
time step continuity errors : sum local = 1.79166e-10, global = 2.24093e-11, cumulative = -7.96927e-08
DICPCG:  Solving for p, Initial residual = 0.00103804, Final residual = 9.36286e-07, No Iterations 306
time step continuity errors : sum local = 3.5291e-12, global = 2.49806e-14, cumulative = -7.96927e-08
ExecutionTime = 425.7 s  ClockTime = 427 s

Time = 39.25

Courant Number mean: 0.0101499 max: 0.0824083
smoothSolver:  Solving for Ux, Initial residual = 4.11945e-05, Final residual = 3.5761e-06, No Iterations 1
smoothSolver:  Solving for Uy, Initial residual = 0.000163786, Final residual = 8.58069e-06, No Iterations 1
DICPCG:  Solving for p, Initial residual = 0.00105267, Final residual = 4.72526e-05, No Iterations 95
time step continuity errors : sum local = 1.78104e-10, global = 2.23826e-11, cumulative = -7.96703e-08
DICPCG:  Solving for p, Initial residual = 0.0010364, Final residual = 9.46626e-07, No Iterations 306
time step continuity errors : sum local = 3.56776e-12, global = 2.49767e-14, cumulative = -7.96703e-08
ExecutionTime = 426.17 s  ClockTime = 427 s

Time = 39.3

Courant Number mean: 0.0101496 max: 0.0823876
smoothSolver:  Solving for Ux, Initial residual = 4.1153e-05, Final residual = 3.57024e-06, No Iterations 1
smoothSolver:  Solving for Uy, Initial residual = 0.000163614, Final residual = 8.56611e-06, No Iterations 1
DICPCG:  Solving for p, Initial residual = 0.00105123, Final residual = 4.73763e-05, No Iterations 95
time step continuity errors : sum local = 1.78554e-10, global = 2.23512e-11, cumulative = -7.96479e-08
DICPCG:  Solving for p, Initial residual = 0.00103509, Final residual = 9.1544e-07, No Iterations 306
time step continuity errors : sum local = 3.44992e-12, global = 2.46635e-14, cumulative = -7.96479e-08
ExecutionTime = 426.64 s  ClockTime = 428 s

Time = 39.35

Courant Number mean: 0.0101493 max: 0.0823668
smoothSolver:  Solving for Ux, Initial residual = 4.11115e-05, Final residual = 3.56441e-06, No Iterations 1
smoothSolver:  Solving for Uy, Initial residual = 0.000163442, Final residual = 8.55154e-06, No Iterations 1
DICPCG:  Solving for p, Initial residual = 0.00104991, Final residual = 4.70844e-05, No Iterations 95
time step continuity errors : sum local = 1.77439e-10, global = 2.23258e-11, cumulative = -7.96256e-08
DICPCG:  Solving for p, Initial residual = 0.00103344, Final residual = 9.36914e-07, No Iterations 306
time step continuity errors : sum local = 3.53054e-12, global = 2.48214e-14, cumulative = -7.96255e-08
ExecutionTime = 427.11 s  ClockTime = 428 s

Time = 39.4

Courant Number mean: 0.010149 max: 0.0823462
smoothSolver:  Solving for Ux, Initial residual = 4.107e-05, Final residual = 3.55858e-06, No Iterations 1
smoothSolver:  Solving for Uy, Initial residual = 0.000163271, Final residual = 8.53703e-06, No Iterations 1
DICPCG:  Solving for p, Initial residual = 0.0010486, Final residual = 4.7238e-05, No Iterations 95
time step continuity errors : sum local = 1.78002e-10, global = 2.22937e-11, cumulative = -7.96033e-08
DICPCG:  Solving for p, Initial residual = 0.00103214, Final residual = 9.45908e-07, No Iterations 306
time step continuity errors : sum local = 3.56412e-12, global = 2.48331e-14, cumulative = -7.96032e-08
ExecutionTime = 427.57 s  ClockTime = 429 s

Time = 39.45

Courant Number mean: 0.0101487 max: 0.0823255
smoothSolver:  Solving for Ux, Initial residual = 4.10287e-05, Final residual = 3.55278e-06, No Iterations 1
smoothSolver:  Solving for Uy, Initial residual = 0.000163099, Final residual = 8.52251e-06, No Iterations 1
DICPCG:  Solving for p, Initial residual = 0.00104815, Final residual = 4.71526e-05, No Iterations 95
time step continuity errors : sum local = 1.77665e-10, global = 2.22658e-11, cumulative = -7.9581e-08
DICPCG:  Solving for p, Initial residual = 0.00103066, Final residual = 9.46642e-07, No Iterations 306
time step continuity errors : sum local = 3.56657e-12, global = 2.48381e-14, cumulative = -7.95809e-08
ExecutionTime = 428.05 s  ClockTime = 429 s

Time = 39.5

Courant Number mean: 0.0101484 max: 0.0823048
smoothSolver:  Solving for Ux, Initial residual = 4.09875e-05, Final residual = 3.54698e-06, No Iterations 1
smoothSolver:  Solving for Uy, Initial residual = 0.000162928, Final residual = 8.50808e-06, No Iterations 1
DICPCG:  Solving for p, Initial residual = 0.001047, Final residual = 4.71773e-05, No Iterations 95
time step continuity errors : sum local = 1.77742e-10, global = 2.22389e-11, cumulative = -7.95587e-08
DICPCG:  Solving for p, Initial residual = 0.00102928, Final residual = 9.92042e-07, No Iterations 305
time step continuity errors : sum local = 3.73731e-12, global = 2.61925e-14, cumulative = -7.95587e-08
ExecutionTime = 428.99 s  ClockTime = 430 s

Time = 39.55

Courant Number mean: 0.0101481 max: 0.0822842
smoothSolver:  Solving for Ux, Initial residual = 4.09465e-05, Final residual = 3.54121e-06, No Iterations 1
smoothSolver:  Solving for Uy, Initial residual = 0.000162756, Final residual = 8.49362e-06, No Iterations 1
DICPCG:  Solving for p, Initial residual = 0.00104843, Final residual = 4.72499e-05, No Iterations 95
time step continuity errors : sum local = 1.78001e-10, global = 2.22142e-11, cumulative = -7.95365e-08
DICPCG:  Solving for p, Initial residual = 0.00102815, Final residual = 9.93105e-07, No Iterations 305
time step continuity errors : sum local = 3.74102e-12, global = 2.59214e-14, cumulative = -7.95364e-08
ExecutionTime = 429.45 s  ClockTime = 431 s

Time = 39.6

Courant Number mean: 0.0101478 max: 0.0822636
smoothSolver:  Solving for Ux, Initial residual = 4.09057e-05, Final residual = 3.53547e-06, No Iterations 1
smoothSolver:  Solving for Uy, Initial residual = 0.000162582, Final residual = 8.47906e-06, No Iterations 1
DICPCG:  Solving for p, Initial residual = 0.00104448, Final residual = 4.70409e-05, No Iterations 95
time step continuity errors : sum local = 1.77199e-10, global = 2.21654e-11, cumulative = -7.95143e-08
DICPCG:  Solving for p, Initial residual = 0.00102648, Final residual = 9.14412e-07, No Iterations 306
time step continuity errors : sum local = 3.44427e-12, global = 2.43037e-14, cumulative = -7.95142e-08
ExecutionTime = 429.92 s  ClockTime = 431 s

Time = 39.65

Courant Number mean: 0.0101475 max: 0.082243
smoothSolver:  Solving for Ux, Initial residual = 4.08646e-05, Final residual = 3.52971e-06, No Iterations 1
smoothSolver:  Solving for Uy, Initial residual = 0.000162417, Final residual = 8.46506e-06, No Iterations 1
DICPCG:  Solving for p, Initial residual = 0.00104768, Final residual = 4.71824e-05, No Iterations 95
time step continuity errors : sum local = 1.77715e-10, global = 2.21358e-11, cumulative = -7.94921e-08
DICPCG:  Solving for p, Initial residual = 0.00102584, Final residual = 9.95715e-07, No Iterations 305
time step continuity errors : sum local = 3.75013e-12, global = 2.64363e-14, cumulative = -7.94921e-08
ExecutionTime = 430.4 s  ClockTime = 432 s

Time = 39.7

Courant Number mean: 0.0101472 max: 0.0822224
smoothSolver:  Solving for Ux, Initial residual = 4.08235e-05, Final residual = 3.52394e-06, No Iterations 1
smoothSolver:  Solving for Uy, Initial residual = 0.000162255, Final residual = 8.45104e-06, No Iterations 1
DICPCG:  Solving for p, Initial residual = 0.00103992, Final residual = 4.67529e-05, No Iterations 95
time step continuity errors : sum local = 1.76081e-10, global = 2.21273e-11, cumulative = -7.947e-08
DICPCG:  Solving for p, Initial residual = 0.00102338, Final residual = 9.45749e-07, No Iterations 306
time step continuity errors : sum local = 3.56163e-12, global = 2.45322e-14, cumulative = -7.94699e-08
ExecutionTime = 430.87 s  ClockTime = 432 s

Time = 39.75

Courant Number mean: 0.0101469 max: 0.0822018
smoothSolver:  Solving for Ux, Initial residual = 4.07828e-05, Final residual = 3.51823e-06, No Iterations 1
smoothSolver:  Solving for Uy, Initial residual = 0.000162087, Final residual = 8.43656e-06, No Iterations 1
DICPCG:  Solving for p, Initial residual = 0.00103771, Final residual = 4.64788e-05, No Iterations 95
time step continuity errors : sum local = 1.75033e-10, global = 2.21031e-11, cumulative = -7.94478e-08
DICPCG:  Solving for p, Initial residual = 0.00102174, Final residual = 9.37017e-07, No Iterations 306
time step continuity errors : sum local = 3.52843e-12, global = 2.43687e-14, cumulative = -7.94478e-08
ExecutionTime = 431.34 s  ClockTime = 432 s

Time = 39.8

Courant Number mean: 0.0101466 max: 0.0821813
smoothSolver:  Solving for Ux, Initial residual = 4.07423e-05, Final residual = 3.51253e-06, No Iterations 1
smoothSolver:  Solving for Uy, Initial residual = 0.000161918, Final residual = 8.42236e-06, No Iterations 1
DICPCG:  Solving for p, Initial residual = 0.0010361, Final residual = 4.6694e-05, No Iterations 95
time step continuity errors : sum local = 1.75828e-10, global = 2.20747e-11, cumulative = -7.94257e-08
DICPCG:  Solving for p, Initial residual = 0.00102033, Final residual = 9.23885e-07, No Iterations 306
time step continuity errors : sum local = 3.47868e-12, global = 2.39473e-14, cumulative = -7.94257e-08
ExecutionTime = 431.8 s  ClockTime = 433 s

Time = 39.85

Courant Number mean: 0.0101463 max: 0.0821608
smoothSolver:  Solving for Ux, Initial residual = 4.07018e-05, Final residual = 3.50686e-06, No Iterations 1
smoothSolver:  Solving for Uy, Initial residual = 0.000161749, Final residual = 8.40816e-06, No Iterations 1
DICPCG:  Solving for p, Initial residual = 0.00103468, Final residual = 4.63804e-05, No Iterations 95
time step continuity errors : sum local = 1.74631e-10, global = 2.20495e-11, cumulative = -7.94037e-08
DICPCG:  Solving for p, Initial residual = 0.00101869, Final residual = 9.31914e-07, No Iterations 306
time step continuity errors : sum local = 3.5086e-12, global = 2.3737e-14, cumulative = -7.94036e-08
ExecutionTime = 432.27 s  ClockTime = 433 s

Time = 39.9

Courant Number mean: 0.010146 max: 0.0821402
smoothSolver:  Solving for Ux, Initial residual = 4.06614e-05, Final residual = 3.50119e-06, No Iterations 1
smoothSolver:  Solving for Uy, Initial residual = 0.000161581, Final residual = 8.394e-06, No Iterations 1
DICPCG:  Solving for p, Initial residual = 0.00103322, Final residual = 4.65892e-05, No Iterations 95
time step continuity errors : sum local = 1.75402e-10, global = 2.20153e-11, cumulative = -7.93816e-08
DICPCG:  Solving for p, Initial residual = 0.00101759, Final residual = 9.85713e-07, No Iterations 305
time step continuity errors : sum local = 3.71082e-12, global = 2.58199e-14, cumulative = -7.93816e-08
ExecutionTime = 432.75 s  ClockTime = 434 s

Time = 39.95

Courant Number mean: 0.0101457 max: 0.0821197
smoothSolver:  Solving for Ux, Initial residual = 4.06211e-05, Final residual = 3.49555e-06, No Iterations 1
smoothSolver:  Solving for Uy, Initial residual = 0.000161413, Final residual = 8.37985e-06, No Iterations 1
DICPCG:  Solving for p, Initial residual = 0.00103183, Final residual = 4.62139e-05, No Iterations 95
time step continuity errors : sum local = 1.73974e-10, global = 2.19827e-11, cumulative = -7.93596e-08
DICPCG:  Solving for p, Initial residual = 0.00101604, Final residual = 9.36414e-07, No Iterations 306
time step continuity errors : sum local = 3.52493e-12, global = 2.368e-14, cumulative = -7.93596e-08
ExecutionTime = 433.23 s  ClockTime = 434 s

Time = 40

Courant Number mean: 0.0101454 max: 0.0820993
smoothSolver:  Solving for Ux, Initial residual = 4.05808e-05, Final residual = 3.48991e-06, No Iterations 1
smoothSolver:  Solving for Uy, Initial residual = 0.000161246, Final residual = 8.36573e-06, No Iterations 1
DICPCG:  Solving for p, Initial residual = 0.00103043, Final residual = 4.63333e-05, No Iterations 95
time step continuity errors : sum local = 1.74409e-10, global = 2.19608e-11, cumulative = -7.93376e-08
DICPCG:  Solving for p, Initial residual = 0.00101465, Final residual = 9.99782e-07, No Iterations 305
time step continuity errors : sum local = 3.76313e-12, global = 2.57724e-14, cumulative = -7.93376e-08
ExecutionTime = 434.17 s  ClockTime = 435 s

End

