/*---------------------------------------------------------------------------*\
  =========                 |
  \\      /  F ield         | OpenFOAM: The Open Source CFD Toolbox
   \\    /   O peration     | Website:  https://openfoam.org
    \\  /    A nd           | Version:  7
     \\/     M anipulation  |
\*---------------------------------------------------------------------------*/
Build  : 7-49b2b3b8b082
Exec   : icoFoam
Date   : May 14 2021
Time   : 21:59:23
Host   : "c445-053.stampede2.tacc.utexas.edu"
PID    : 9038
I/O    : uncollated
Case   : /work2/06781/jpborsos/stampede2/coe347/Final_Project/COE347/finalProject/results/highRe/spline2
nProcs : 1
sigFpe : Enabling floating point exception trapping (FOAM_SIGFPE).
fileModificationChecking : Monitoring run-time modified files using timeStampMaster (fileModificationSkew 10)
allowSystemOperations : Allowing user-supplied system call operations

// * * * * * * * * * * * * * * * * * * * * * * * * * * * * * * * * * * * * * //
Create time

Create mesh for time = 0

Reading transportProperties

Reading field p

Reading field U

Reading/calculating face flux field phi


Starting time loop

Time = 0.05

Courant Number mean: 0.0148878 max: 0.309117
smoothSolver:  Solving for Ux, Initial residual = 1, Final residual = 9.8901e-06, No Iterations 55
smoothSolver:  Solving for Uy, Initial residual = 0, Final residual = 0, No Iterations 0
DICPCG:  Solving for p, Initial residual = 1, Final residual = 0.0492317, No Iterations 676
time step continuity errors : sum local = 1.26147e-07, global = -3.57184e-10, cumulative = -3.57184e-10
DICPCG:  Solving for p, Initial residual = 0.606096, Final residual = 9.88302e-07, No Iterations 945
time step continuity errors : sum local = 1.35995e-11, global = -2.30268e-14, cumulative = -3.57207e-10
ExecutionTime = 21.08 s  ClockTime = 21 s

Time = 0.1

Courant Number mean: 0.0149028 max: 0.311012
smoothSolver:  Solving for Ux, Initial residual = 0.113618, Final residual = 8.90394e-06, No Iterations 37
smoothSolver:  Solving for Uy, Initial residual = 0.261229, Final residual = 8.57229e-06, No Iterations 43
DICPCG:  Solving for p, Initial residual = 0.259355, Final residual = 0.0127825, No Iterations 317
time step continuity errors : sum local = 6.6623e-07, global = 1.33187e-08, cumulative = 1.29615e-08
DICPCG:  Solving for p, Initial residual = 0.156721, Final residual = 9.9054e-07, No Iterations 908
time step continuity errors : sum local = 7.30668e-11, global = -1.90579e-13, cumulative = 1.29613e-08
ExecutionTime = 36.12 s  ClockTime = 36 s

Time = 0.15

Courant Number mean: 0.0149802 max: 0.437074
smoothSolver:  Solving for Ux, Initial residual = 0.229729, Final residual = 9.03705e-06, No Iterations 41
smoothSolver:  Solving for Uy, Initial residual = 0.176657, Final residual = 8.67809e-06, No Iterations 38
DICPCG:  Solving for p, Initial residual = 0.409679, Final residual = 0.0200423, No Iterations 183
time step continuity errors : sum local = 7.75029e-07, global = -4.59965e-09, cumulative = 8.36162e-09
DICPCG:  Solving for p, Initial residual = 0.338149, Final residual = 9.5036e-07, No Iterations 844
time step continuity errors : sum local = 3.14079e-11, global = 2.92722e-13, cumulative = 8.36192e-09
ExecutionTime = 49.11 s  ClockTime = 49 s

Time = 0.2

Courant Number mean: 0.0149436 max: 0.384034
smoothSolver:  Solving for Ux, Initial residual = 0.034283, Final residual = 9.20931e-06, No Iterations 29
smoothSolver:  Solving for Uy, Initial residual = 0.0637463, Final residual = 9.82168e-06, No Iterations 32
DICPCG:  Solving for p, Initial residual = 0.325839, Final residual = 0.01629, No Iterations 211
time step continuity errors : sum local = 3.61092e-07, global = 4.92121e-09, cumulative = 1.32831e-08
DICPCG:  Solving for p, Initial residual = 0.447319, Final residual = 9.98473e-07, No Iterations 843
time step continuity errors : sum local = 1.15978e-11, global = -2.31873e-14, cumulative = 1.32831e-08
ExecutionTime = 61.67 s  ClockTime = 62 s

Time = 0.25

Courant Number mean: 0.0149462 max: 0.382872
smoothSolver:  Solving for Ux, Initial residual = 0.0124899, Final residual = 9.18136e-06, No Iterations 28
smoothSolver:  Solving for Uy, Initial residual = 0.0239913, Final residual = 9.94086e-06, No Iterations 31
DICPCG:  Solving for p, Initial residual = 0.383131, Final residual = 0.0187315, No Iterations 188
time step continuity errors : sum local = 1.99766e-07, global = -2.51808e-09, cumulative = 1.0765e-08
DICPCG:  Solving for p, Initial residual = 0.302614, Final residual = 9.93194e-07, No Iterations 862
time step continuity errors : sum local = 9.92793e-12, global = 2.47905e-15, cumulative = 1.0765e-08
ExecutionTime = 74.19 s  ClockTime = 74 s

Time = 0.3

Courant Number mean: 0.0149383 max: 0.360981
smoothSolver:  Solving for Ux, Initial residual = 0.00726347, Final residual = 8.92611e-06, No Iterations 27
smoothSolver:  Solving for Uy, Initial residual = 0.0166396, Final residual = 9.00179e-06, No Iterations 27
DICPCG:  Solving for p, Initial residual = 0.404896, Final residual = 0.0202374, No Iterations 185
time step continuity errors : sum local = 1.22248e-07, global = 8.7779e-10, cumulative = 1.16428e-08
DICPCG:  Solving for p, Initial residual = 0.484381, Final residual = 9.65148e-07, No Iterations 875
time step continuity errors : sum local = 3.68917e-12, global = 2.68119e-14, cumulative = 1.16428e-08
ExecutionTime = 86.73 s  ClockTime = 87 s

Time = 0.35

Courant Number mean: 0.0149338 max: 0.348803
smoothSolver:  Solving for Ux, Initial residual = 0.00382445, Final residual = 9.51952e-06, No Iterations 24
smoothSolver:  Solving for Uy, Initial residual = 0.0097401, Final residual = 8.86371e-06, No Iterations 28
DICPCG:  Solving for p, Initial residual = 0.474109, Final residual = 0.023566, No Iterations 179
time step continuity errors : sum local = 7.97547e-08, global = -2.37462e-10, cumulative = 1.14054e-08
DICPCG:  Solving for p, Initial residual = 0.226981, Final residual = 9.90761e-07, No Iterations 838
time step continuity errors : sum local = 5.42886e-12, global = -3.38027e-14, cumulative = 1.14053e-08
ExecutionTime = 98.54 s  ClockTime = 99 s

Time = 0.4

Courant Number mean: 0.014929 max: 0.334132
smoothSolver:  Solving for Ux, Initial residual = 0.00331355, Final residual = 9.3354e-06, No Iterations 24
smoothSolver:  Solving for Uy, Initial residual = 0.00908539, Final residual = 9.6478e-06, No Iterations 23
DICPCG:  Solving for p, Initial residual = 0.366538, Final residual = 0.0178276, No Iterations 192
time step continuity errors : sum local = 5.39671e-08, global = 2.14155e-10, cumulative = 1.16195e-08
DICPCG:  Solving for p, Initial residual = 0.323101, Final residual = 9.92944e-07, No Iterations 873
time step continuity errors : sum local = 2.66667e-12, global = 3.64633e-15, cumulative = 1.16195e-08
ExecutionTime = 110.83 s  ClockTime = 111 s

Time = 0.45

Courant Number mean: 0.0149249 max: 0.322938
smoothSolver:  Solving for Ux, Initial residual = 0.00241432, Final residual = 9.30319e-06, No Iterations 22
smoothSolver:  Solving for Uy, Initial residual = 0.00697387, Final residual = 8.83198e-06, No Iterations 26
DICPCG:  Solving for p, Initial residual = 0.409546, Final residual = 0.0201698, No Iterations 178
time step continuity errors : sum local = 4.01129e-08, global = -4.27415e-11, cumulative = 1.15768e-08
DICPCG:  Solving for p, Initial residual = 0.183054, Final residual = 9.64689e-07, No Iterations 848
time step continuity errors : sum local = 3.34886e-12, global = 7.05474e-15, cumulative = 1.15768e-08
ExecutionTime = 122.8 s  ClockTime = 123 s

Time = 0.5

Courant Number mean: 0.0149209 max: 0.313495
smoothSolver:  Solving for Ux, Initial residual = 0.00216746, Final residual = 9.23868e-06, No Iterations 22
smoothSolver:  Solving for Uy, Initial residual = 0.00648764, Final residual = 8.28122e-06, No Iterations 22
DICPCG:  Solving for p, Initial residual = 0.270319, Final residual = 0.0134831, No Iterations 192
time step continuity errors : sum local = 3.02243e-08, global = 9.09156e-11, cumulative = 1.16677e-08
DICPCG:  Solving for p, Initial residual = 0.2515, Final residual = 9.80689e-07, No Iterations 858
time step continuity errors : sum local = 1.86398e-12, global = -2.29245e-14, cumulative = 1.16677e-08
ExecutionTime = 134.93 s  ClockTime = 135 s

Time = 0.55

Courant Number mean: 0.0149172 max: 0.313445
smoothSolver:  Solving for Ux, Initial residual = 0.00178366, Final residual = 8.41812e-06, No Iterations 21
smoothSolver:  Solving for Uy, Initial residual = 0.00544839, Final residual = 8.96645e-06, No Iterations 24
DICPCG:  Solving for p, Initial residual = 0.292747, Final residual = 0.0145375, No Iterations 162
time step continuity errors : sum local = 2.32703e-08, global = -2.18374e-11, cumulative = 1.16458e-08
DICPCG:  Solving for p, Initial residual = 0.144872, Final residual = 9.71823e-07, No Iterations 847
time step continuity errors : sum local = 2.4669e-12, global = 2.8728e-16, cumulative = 1.16458e-08
ExecutionTime = 146.56 s  ClockTime = 147 s

Time = 0.6

Courant Number mean: 0.0149136 max: 0.313067
smoothSolver:  Solving for Ux, Initial residual = 0.00163058, Final residual = 9.84913e-06, No Iterations 20
smoothSolver:  Solving for Uy, Initial residual = 0.00514309, Final residual = 9.83908e-06, No Iterations 20
DICPCG:  Solving for p, Initial residual = 0.19006, Final residual = 0.00932341, No Iterations 191
time step continuity errors : sum local = 1.7772e-08, global = 5.2146e-11, cumulative = 1.1698e-08
DICPCG:  Solving for p, Initial residual = 0.181693, Final residual = 9.68114e-07, No Iterations 860
time step continuity errors : sum local = 1.53057e-12, global = -2.3707e-14, cumulative = 1.16979e-08
ExecutionTime = 158.6 s  ClockTime = 159 s

Time = 0.65

Courant Number mean: 0.0149104 max: 0.312473
smoothSolver:  Solving for Ux, Initial residual = 0.00143002, Final residual = 9.6218e-06, No Iterations 19
smoothSolver:  Solving for Uy, Initial residual = 0.00455932, Final residual = 9.59554e-06, No Iterations 22
DICPCG:  Solving for p, Initial residual = 0.19328, Final residual = 0.00937986, No Iterations 152
time step continuity errors : sum local = 1.41309e-08, global = -1.01269e-11, cumulative = 1.16878e-08
DICPCG:  Solving for p, Initial residual = 0.106593, Final residual = 9.49348e-07, No Iterations 830
time step continuity errors : sum local = 2.03574e-12, global = 1.41246e-14, cumulative = 1.16878e-08
ExecutionTime = 169.84 s  ClockTime = 170 s

Time = 0.7

Courant Number mean: 0.0149072 max: 0.311699
smoothSolver:  Solving for Ux, Initial residual = 0.00133113, Final residual = 9.38842e-06, No Iterations 19
smoothSolver:  Solving for Uy, Initial residual = 0.00429624, Final residual = 9.73801e-06, No Iterations 19
DICPCG:  Solving for p, Initial residual = 0.134067, Final residual = 0.00665366, No Iterations 188
time step continuity errors : sum local = 1.13645e-08, global = 3.74926e-11, cumulative = 1.17253e-08
DICPCG:  Solving for p, Initial residual = 0.133835, Final residual = 9.86902e-07, No Iterations 856
time step continuity errors : sum local = 1.33754e-12, global = 1.18475e-14, cumulative = 1.17253e-08
ExecutionTime = 181.61 s  ClockTime = 182 s

Time = 0.75

Courant Number mean: 0.0149042 max: 0.310787
smoothSolver:  Solving for Ux, Initial residual = 0.00119523, Final residual = 9.51898e-06, No Iterations 18
smoothSolver:  Solving for Uy, Initial residual = 0.00393219, Final residual = 8.99897e-06, No Iterations 21
DICPCG:  Solving for p, Initial residual = 0.125258, Final residual = 0.0062628, No Iterations 142
time step continuity errors : sum local = 9.24783e-09, global = -8.61571e-13, cumulative = 1.17245e-08
DICPCG:  Solving for p, Initial residual = 0.0803461, Final residual = 9.8631e-07, No Iterations 827
time step continuity errors : sum local = 1.77861e-12, global = 3.29247e-14, cumulative = 1.17245e-08
ExecutionTime = 192.68 s  ClockTime = 193 s

Time = 0.8

Courant Number mean: 0.0149012 max: 0.309673
smoothSolver:  Solving for Ux, Initial residual = 0.0011248, Final residual = 9.21462e-06, No Iterations 18
smoothSolver:  Solving for Uy, Initial residual = 0.00375519, Final residual = 8.58847e-06, No Iterations 19
DICPCG:  Solving for p, Initial residual = 0.0941092, Final residual = 0.00468084, No Iterations 196
time step continuity errors : sum local = 7.40618e-09, global = 2.21049e-11, cumulative = 1.17466e-08
DICPCG:  Solving for p, Initial residual = 0.0881728, Final residual = 9.75487e-07, No Iterations 852
time step continuity errors : sum local = 1.30305e-12, global = 1.13516e-14, cumulative = 1.17466e-08
ExecutionTime = 204.49 s  ClockTime = 205 s

Time = 0.85

Courant Number mean: 0.0148985 max: 0.30848
smoothSolver:  Solving for Ux, Initial residual = 0.00103227, Final residual = 9.66685e-06, No Iterations 17
smoothSolver:  Solving for Uy, Initial residual = 0.00350843, Final residual = 8.82329e-06, No Iterations 20
DICPCG:  Solving for p, Initial residual = 0.086568, Final residual = 0.00427582, No Iterations 140
time step continuity errors : sum local = 6.16084e-09, global = 1.6772e-12, cumulative = 1.17483e-08
DICPCG:  Solving for p, Initial residual = 0.058962, Final residual = 9.83313e-07, No Iterations 800
time step continuity errors : sum local = 1.60846e-12, global = -3.05454e-14, cumulative = 1.17483e-08
ExecutionTime = 215.27 s  ClockTime = 215 s

Time = 0.9

Courant Number mean: 0.0148958 max: 0.307145
smoothSolver:  Solving for Ux, Initial residual = 0.000978355, Final residual = 9.26568e-06, No Iterations 17
smoothSolver:  Solving for Uy, Initial residual = 0.00337133, Final residual = 9.31246e-06, No Iterations 18
DICPCG:  Solving for p, Initial residual = 0.067036, Final residual = 0.00328967, No Iterations 199
time step continuity errors : sum local = 4.97962e-09, global = 1.00219e-11, cumulative = 1.17583e-08
DICPCG:  Solving for p, Initial residual = 0.0602341, Final residual = 9.96985e-07, No Iterations 811
time step continuity errors : sum local = 1.32009e-12, global = -1.51414e-14, cumulative = 1.17583e-08
ExecutionTime = 226.76 s  ClockTime = 227 s

Time = 0.95

Courant Number mean: 0.0148932 max: 0.305752
smoothSolver:  Solving for Ux, Initial residual = 0.000913525, Final residual = 8.27809e-06, No Iterations 17
smoothSolver:  Solving for Uy, Initial residual = 0.00318844, Final residual = 8.97511e-06, No Iterations 19
DICPCG:  Solving for p, Initial residual = 0.0613889, Final residual = 0.0030381, No Iterations 152
time step continuity errors : sum local = 4.26545e-09, global = -1.79204e-12, cumulative = 1.17565e-08
DICPCG:  Solving for p, Initial residual = 0.0426154, Final residual = 9.69123e-07, No Iterations 806
time step continuity errors : sum local = 1.50426e-12, global = 4.13393e-15, cumulative = 1.17565e-08
ExecutionTime = 237.51 s  ClockTime = 238 s

Time = 1

Courant Number mean: 0.0148906 max: 0.304261
smoothSolver:  Solving for Ux, Initial residual = 0.000871881, Final residual = 9.58565e-06, No Iterations 16
smoothSolver:  Solving for Uy, Initial residual = 0.00309663, Final residual = 8.35447e-06, No Iterations 18
DICPCG:  Solving for p, Initial residual = 0.0488277, Final residual = 0.00238975, No Iterations 198
time step continuity errors : sum local = 3.47213e-09, global = 8.97655e-12, cumulative = 1.17655e-08
DICPCG:  Solving for p, Initial residual = 0.0410895, Final residual = 9.90998e-07, No Iterations 801
time step continuity errors : sum local = 1.32118e-12, global = -6.85712e-15, cumulative = 1.17655e-08
ExecutionTime = 251.17 s  ClockTime = 251 s

Time = 1.05

Courant Number mean: 0.0148882 max: 0.302735
smoothSolver:  Solving for Ux, Initial residual = 0.000817634, Final residual = 8.75004e-06, No Iterations 16
smoothSolver:  Solving for Uy, Initial residual = 0.00292934, Final residual = 9.30745e-06, No Iterations 18
DICPCG:  Solving for p, Initial residual = 0.044191, Final residual = 0.0021989, No Iterations 180
time step continuity errors : sum local = 3.01356e-09, global = -3.52766e-12, cumulative = 1.17619e-08
DICPCG:  Solving for p, Initial residual = 0.0305211, Final residual = 9.75475e-07, No Iterations 776
time step continuity errors : sum local = 1.46287e-12, global = -3.90487e-15, cumulative = 1.17619e-08
ExecutionTime = 261.86 s  ClockTime = 262 s

Time = 1.1

Courant Number mean: 0.0148858 max: 0.301147
smoothSolver:  Solving for Ux, Initial residual = 0.000785095, Final residual = 8.37953e-06, No Iterations 16
smoothSolver:  Solving for Uy, Initial residual = 0.00284394, Final residual = 9.20409e-06, No Iterations 17
DICPCG:  Solving for p, Initial residual = 0.0357391, Final residual = 0.00177161, No Iterations 192
time step continuity errors : sum local = 2.48694e-09, global = 6.63553e-12, cumulative = 1.17686e-08
DICPCG:  Solving for p, Initial residual = 0.028101, Final residual = 9.99203e-07, No Iterations 800
time step continuity errors : sum local = 1.34277e-12, global = -1.6291e-14, cumulative = 1.17685e-08
ExecutionTime = 272.91 s  ClockTime = 273 s

Time = 1.15

Courant Number mean: 0.0148835 max: 0.299528
smoothSolver:  Solving for Ux, Initial residual = 0.000744395, Final residual = 9.36144e-06, No Iterations 15
smoothSolver:  Solving for Uy, Initial residual = 0.00274454, Final residual = 9.92723e-06, No Iterations 17
DICPCG:  Solving for p, Initial residual = 0.0320151, Final residual = 0.00157468, No Iterations 193
time step continuity errors : sum local = 2.11923e-09, global = -2.3038e-12, cumulative = 1.17662e-08
DICPCG:  Solving for p, Initial residual = 0.0218505, Final residual = 9.91972e-07, No Iterations 774
time step continuity errors : sum local = 1.44337e-12, global = 2.2092e-14, cumulative = 1.17663e-08
ExecutionTime = 284.49 s  ClockTime = 285 s

Time = 1.2

Courant Number mean: 0.0148813 max: 0.29789
smoothSolver:  Solving for Ux, Initial residual = 0.000713562, Final residual = 8.99078e-06, No Iterations 15
smoothSolver:  Solving for Uy, Initial residual = 0.00264865, Final residual = 8.47946e-06, No Iterations 17
DICPCG:  Solving for p, Initial residual = 0.0272586, Final residual = 0.00135997, No Iterations 203
time step continuity errors : sum local = 1.8555e-09, global = 3.67316e-12, cumulative = 1.17699e-08
DICPCG:  Solving for p, Initial residual = 0.0207745, Final residual = 9.75512e-07, No Iterations 793
time step continuity errors : sum local = 1.28674e-12, global = -1.81755e-14, cumulative = 1.17699e-08
ExecutionTime = 295.91 s  ClockTime = 296 s

Time = 1.25

Courant Number mean: 0.0148791 max: 0.296231
smoothSolver:  Solving for Ux, Initial residual = 0.000682057, Final residual = 8.38847e-06, No Iterations 15
smoothSolver:  Solving for Uy, Initial residual = 0.00257203, Final residual = 8.90558e-06, No Iterations 17
DICPCG:  Solving for p, Initial residual = 0.0242011, Final residual = 0.00119984, No Iterations 189
time step continuity errors : sum local = 1.58583e-09, global = -1.87209e-12, cumulative = 1.1768e-08
DICPCG:  Solving for p, Initial residual = 0.0165959, Final residual = 9.98552e-07, No Iterations 765
time step continuity errors : sum local = 1.39662e-12, global = -5.4414e-15, cumulative = 1.1768e-08
ExecutionTime = 306.55 s  ClockTime = 307 s

Time = 1.3

Courant Number mean: 0.014877 max: 0.294561
smoothSolver:  Solving for Ux, Initial residual = 0.000657626, Final residual = 9.79791e-06, No Iterations 14
smoothSolver:  Solving for Uy, Initial residual = 0.00249603, Final residual = 9.43754e-06, No Iterations 16
DICPCG:  Solving for p, Initial residual = 0.0208554, Final residual = 0.00103226, No Iterations 211
time step continuity errors : sum local = 1.37717e-09, global = 2.24034e-12, cumulative = 1.17703e-08
DICPCG:  Solving for p, Initial residual = 0.0154137, Final residual = 9.8728e-07, No Iterations 784
time step continuity errors : sum local = 1.28209e-12, global = -1.76813e-14, cumulative = 1.17703e-08
ExecutionTime = 317.63 s  ClockTime = 318 s

Time = 1.35

Courant Number mean: 0.0148749 max: 0.292894
smoothSolver:  Solving for Ux, Initial residual = 0.000627982, Final residual = 9.24895e-06, No Iterations 14
smoothSolver:  Solving for Uy, Initial residual = 0.00241636, Final residual = 9.72394e-06, No Iterations 16
DICPCG:  Solving for p, Initial residual = 0.0189865, Final residual = 0.00094523, No Iterations 181
time step continuity errors : sum local = 1.22578e-09, global = -1.68596e-12, cumulative = 1.17686e-08
DICPCG:  Solving for p, Initial residual = 0.0127555, Final residual = 9.92067e-07, No Iterations 773
time step continuity errors : sum local = 1.3454e-12, global = 9.77317e-15, cumulative = 1.17686e-08
ExecutionTime = 328.13 s  ClockTime = 328 s

Time = 1.4

Courant Number mean: 0.0148729 max: 0.291223
smoothSolver:  Solving for Ux, Initial residual = 0.00060865, Final residual = 8.88233e-06, No Iterations 14
smoothSolver:  Solving for Uy, Initial residual = 0.00235828, Final residual = 8.74389e-06, No Iterations 16
DICPCG:  Solving for p, Initial residual = 0.0165195, Final residual = 0.000819777, No Iterations 212
time step continuity errors : sum local = 1.07098e-09, global = 2.04725e-12, cumulative = 1.17706e-08
DICPCG:  Solving for p, Initial residual = 0.0116816, Final residual = 9.92163e-07, No Iterations 777
time step continuity errors : sum local = 1.26449e-12, global = -1.31544e-15, cumulative = 1.17706e-08
ExecutionTime = 339.09 s  ClockTime = 339 s

Time = 1.45

Courant Number mean: 0.0148709 max: 0.289552
smoothSolver:  Solving for Ux, Initial residual = 0.000584825, Final residual = 8.42416e-06, No Iterations 14
smoothSolver:  Solving for Uy, Initial residual = 0.00229665, Final residual = 8.88272e-06, No Iterations 16
DICPCG:  Solving for p, Initial residual = 0.0151366, Final residual = 0.000755132, No Iterations 190
time step continuity errors : sum local = 9.64199e-10, global = -2.47522e-12, cumulative = 1.17682e-08
DICPCG:  Solving for p, Initial residual = 0.0098882, Final residual = 9.87619e-07, No Iterations 771
time step continuity errors : sum local = 1.3037e-12, global = 7.57446e-15, cumulative = 1.17682e-08
ExecutionTime = 349.84 s  ClockTime = 350 s

Time = 1.5

Courant Number mean: 0.0148689 max: 0.287888
smoothSolver:  Solving for Ux, Initial residual = 0.000567119, Final residual = 9.89277e-06, No Iterations 13
smoothSolver:  Solving for Uy, Initial residual = 0.00224307, Final residual = 9.86216e-06, No Iterations 15
DICPCG:  Solving for p, Initial residual = 0.0135935, Final residual = 0.000673646, No Iterations 219
time step continuity errors : sum local = 8.63353e-10, global = -5.71559e-13, cumulative = 1.17676e-08
DICPCG:  Solving for p, Initial residual = 0.00952796, Final residual = 9.45341e-07, No Iterations 778
time step continuity errors : sum local = 1.18791e-12, global = -8.06611e-15, cumulative = 1.17676e-08
ExecutionTime = 360.77 s  ClockTime = 361 s

Time = 1.55

Courant Number mean: 0.014867 max: 0.286246
smoothSolver:  Solving for Ux, Initial residual = 0.000544391, Final residual = 9.46328e-06, No Iterations 13
smoothSolver:  Solving for Uy, Initial residual = 0.00217568, Final residual = 9.90727e-06, No Iterations 15
DICPCG:  Solving for p, Initial residual = 0.0127583, Final residual = 0.000637586, No Iterations 199
time step continuity errors : sum local = 7.99507e-10, global = -3.61004e-12, cumulative = 1.1764e-08
DICPCG:  Solving for p, Initial residual = 0.00820237, Final residual = 9.72758e-07, No Iterations 769
time step continuity errors : sum local = 1.25801e-12, global = 4.02502e-15, cumulative = 1.1764e-08
ExecutionTime = 371.27 s  ClockTime = 371 s

Time = 1.6

Courant Number mean: 0.0148652 max: 0.284611
smoothSolver:  Solving for Ux, Initial residual = 0.000529608, Final residual = 9.1086e-06, No Iterations 13
smoothSolver:  Solving for Uy, Initial residual = 0.00213342, Final residual = 9.24586e-06, No Iterations 15
DICPCG:  Solving for p, Initial residual = 0.0114654, Final residual = 0.000567804, No Iterations 219
time step continuity errors : sum local = 7.14466e-10, global = -6.17153e-13, cumulative = 1.17634e-08
DICPCG:  Solving for p, Initial residual = 0.00766018, Final residual = 9.66643e-07, No Iterations 774
time step continuity errors : sum local = 1.19721e-12, global = -1.38945e-14, cumulative = 1.17634e-08
ExecutionTime = 382.29 s  ClockTime = 382 s

Time = 1.65

Courant Number mean: 0.0148633 max: 0.282988
smoothSolver:  Solving for Ux, Initial residual = 0.000512075, Final residual = 8.72974e-06, No Iterations 13
smoothSolver:  Solving for Uy, Initial residual = 0.00208307, Final residual = 9.18328e-06, No Iterations 15
DICPCG:  Solving for p, Initial residual = 0.0107839, Final residual = 0.000535507, No Iterations 211
time step continuity errors : sum local = 6.6191e-10, global = -3.263e-12, cumulative = 1.17601e-08
DICPCG:  Solving for p, Initial residual = 0.00678932, Final residual = 9.82353e-07, No Iterations 765
time step continuity errors : sum local = 1.24662e-12, global = -3.77348e-15, cumulative = 1.17601e-08
ExecutionTime = 393.06 s  ClockTime = 393 s

Time = 1.7

Courant Number mean: 0.0148615 max: 0.281379
smoothSolver:  Solving for Ux, Initial residual = 0.000497775, Final residual = 8.42103e-06, No Iterations 13
smoothSolver:  Solving for Uy, Initial residual = 0.00204161, Final residual = 8.66284e-06, No Iterations 15
DICPCG:  Solving for p, Initial residual = 0.0099386, Final residual = 0.000496177, No Iterations 211
time step continuity errors : sum local = 6.13989e-10, global = -6.22803e-13, cumulative = 1.17595e-08
DICPCG:  Solving for p, Initial residual = 0.0063686, Final residual = 9.98636e-07, No Iterations 769
time step continuity errors : sum local = 1.22052e-12, global = -1.28422e-14, cumulative = 1.17594e-08
ExecutionTime = 403.98 s  ClockTime = 404 s

Time = 1.75

Courant Number mean: 0.0148598 max: 0.279784
smoothSolver:  Solving for Ux, Initial residual = 0.000482779, Final residual = 9.92821e-06, No Iterations 12
smoothSolver:  Solving for Uy, Initial residual = 0.00199612, Final residual = 8.5449e-06, No Iterations 15
DICPCG:  Solving for p, Initial residual = 0.00968824, Final residual = 0.000479402, No Iterations 223
time step continuity errors : sum local = 5.83733e-10, global = -3.23598e-12, cumulative = 1.17562e-08
DICPCG:  Solving for p, Initial residual = 0.00636341, Final residual = 9.97876e-07, No Iterations 765
time step continuity errors : sum local = 1.24802e-12, global = -1.32188e-14, cumulative = 1.17562e-08
ExecutionTime = 414.85 s  ClockTime = 415 s

Time = 1.8

Courant Number mean: 0.0148581 max: 0.278223
smoothSolver:  Solving for Ux, Initial residual = 0.000467141, Final residual = 9.63065e-06, No Iterations 12
smoothSolver:  Solving for Uy, Initial residual = 0.00194428, Final residual = 9.89609e-06, No Iterations 14
DICPCG:  Solving for p, Initial residual = 0.00924241, Final residual = 0.000461363, No Iterations 224
time step continuity errors : sum local = 5.61143e-10, global = -1.73377e-12, cumulative = 1.17545e-08
DICPCG:  Solving for p, Initial residual = 0.00601759, Final residual = 9.92005e-07, No Iterations 772
time step continuity errors : sum local = 1.18976e-12, global = -8.7203e-15, cumulative = 1.17545e-08
ExecutionTime = 425.81 s  ClockTime = 426 s

Time = 1.85

Courant Number mean: 0.0148564 max: 0.276676
smoothSolver:  Solving for Ux, Initial residual = 0.000454775, Final residual = 9.2786e-06, No Iterations 12
smoothSolver:  Solving for Uy, Initial residual = 0.00190792, Final residual = 9.75117e-06, No Iterations 14
DICPCG:  Solving for p, Initial residual = 0.00866745, Final residual = 0.000433255, No Iterations 216
time step continuity errors : sum local = 5.19724e-10, global = -2.70646e-12, cumulative = 1.17518e-08
DICPCG:  Solving for p, Initial residual = 0.0054512, Final residual = 9.6797e-07, No Iterations 599
time step continuity errors : sum local = 1.18611e-12, global = 1.35591e-14, cumulative = 1.17518e-08
ExecutionTime = 434.99 s  ClockTime = 435 s

Time = 1.9

Courant Number mean: 0.0148547 max: 0.275146
smoothSolver:  Solving for Ux, Initial residual = 0.000442811, Final residual = 8.98555e-06, No Iterations 12
smoothSolver:  Solving for Uy, Initial residual = 0.00187132, Final residual = 9.332e-06, No Iterations 14
DICPCG:  Solving for p, Initial residual = 0.00819547, Final residual = 0.000402079, No Iterations 228
time step continuity errors : sum local = 4.82146e-10, global = -1.33139e-12, cumulative = 1.17504e-08
DICPCG:  Solving for p, Initial residual = 0.00524107, Final residual = 9.96582e-07, No Iterations 769
time step continuity errors : sum local = 1.18108e-12, global = -1.26664e-14, cumulative = 1.17504e-08
ExecutionTime = 445.86 s  ClockTime = 446 s

Time = 1.95

Courant Number mean: 0.014853 max: 0.273634
smoothSolver:  Solving for Ux, Initial residual = 0.000431011, Final residual = 8.68395e-06, No Iterations 12
smoothSolver:  Solving for Uy, Initial residual = 0.00183497, Final residual = 9.15496e-06, No Iterations 14
DICPCG:  Solving for p, Initial residual = 0.00791766, Final residual = 0.00039024, No Iterations 218
time step continuity errors : sum local = 4.61688e-10, global = -2.61957e-12, cumulative = 1.17478e-08
DICPCG:  Solving for p, Initial residual = 0.00488645, Final residual = 9.77955e-07, No Iterations 598
time step continuity errors : sum local = 1.17924e-12, global = -4.70257e-14, cumulative = 1.17478e-08
ExecutionTime = 455.01 s  ClockTime = 455 s

Time = 2

Courant Number mean: 0.0148514 max: 0.27214
smoothSolver:  Solving for Ux, Initial residual = 0.000420305, Final residual = 8.41436e-06, No Iterations 12
smoothSolver:  Solving for Uy, Initial residual = 0.00180223, Final residual = 8.81797e-06, No Iterations 14
DICPCG:  Solving for p, Initial residual = 0.00758554, Final residual = 0.00037875, No Iterations 218
time step continuity errors : sum local = 4.47816e-10, global = -1.02022e-12, cumulative = 1.17467e-08
DICPCG:  Solving for p, Initial residual = 0.00479034, Final residual = 9.9822e-07, No Iterations 764
time step continuity errors : sum local = 1.1688e-12, global = -1.21954e-14, cumulative = 1.17467e-08
ExecutionTime = 468.26 s  ClockTime = 468 s

Time = 2.05

Courant Number mean: 0.0148498 max: 0.270738
smoothSolver:  Solving for Ux, Initial residual = 0.000409527, Final residual = 8.1467e-06, No Iterations 12
smoothSolver:  Solving for Uy, Initial residual = 0.00176763, Final residual = 8.63073e-06, No Iterations 14
DICPCG:  Solving for p, Initial residual = 0.00737361, Final residual = 0.000367024, No Iterations 225
time step continuity errors : sum local = 4.28288e-10, global = -2.73549e-12, cumulative = 1.1744e-08
DICPCG:  Solving for p, Initial residual = 0.00448346, Final residual = 9.81937e-07, No Iterations 594
time step continuity errors : sum local = 1.16964e-12, global = -2.36196e-15, cumulative = 1.1744e-08
ExecutionTime = 477.41 s  ClockTime = 478 s

Time = 2.1

Courant Number mean: 0.0148483 max: 0.270685
smoothSolver:  Solving for Ux, Initial residual = 0.000399768, Final residual = 9.75226e-06, No Iterations 11
smoothSolver:  Solving for Uy, Initial residual = 0.00173779, Final residual = 8.33823e-06, No Iterations 14
DICPCG:  Solving for p, Initial residual = 0.00747076, Final residual = 0.000364354, No Iterations 226
time step continuity errors : sum local = 4.25018e-10, global = -1.02394e-12, cumulative = 1.1743e-08
DICPCG:  Solving for p, Initial residual = 0.00524119, Final residual = 9.72366e-07, No Iterations 772
time step continuity errors : sum local = 1.12577e-12, global = -1.41415e-14, cumulative = 1.17429e-08
ExecutionTime = 488.22 s  ClockTime = 488 s

Time = 2.15

Courant Number mean: 0.0148467 max: 0.270612
smoothSolver:  Solving for Ux, Initial residual = 0.000387258, Final residual = 9.49957e-06, No Iterations 11
smoothSolver:  Solving for Uy, Initial residual = 0.0016898, Final residual = 9.99599e-06, No Iterations 13
DICPCG:  Solving for p, Initial residual = 0.00745743, Final residual = 0.000368849, No Iterations 225
time step continuity errors : sum local = 4.23786e-10, global = -3.15014e-12, cumulative = 1.17398e-08
DICPCG:  Solving for p, Initial residual = 0.00477591, Final residual = 9.6322e-07, No Iterations 762
time step continuity errors : sum local = 1.1294e-12, global = -1.51147e-14, cumulative = 1.17398e-08
ExecutionTime = 498.98 s  ClockTime = 499 s

Time = 2.2

Courant Number mean: 0.0148452 max: 0.270522
smoothSolver:  Solving for Ux, Initial residual = 0.000379379, Final residual = 9.22442e-06, No Iterations 11
smoothSolver:  Solving for Uy, Initial residual = 0.00166755, Final residual = 9.71123e-06, No Iterations 13
DICPCG:  Solving for p, Initial residual = 0.00703764, Final residual = 0.000350806, No Iterations 219
time step continuity errors : sum local = 4.03436e-10, global = -7.46959e-13, cumulative = 1.1739e-08
DICPCG:  Solving for p, Initial residual = 0.00467144, Final residual = 9.90564e-07, No Iterations 766
time step continuity errors : sum local = 1.13072e-12, global = -9.25995e-15, cumulative = 1.1739e-08
ExecutionTime = 509.59 s  ClockTime = 510 s

Time = 2.25

Courant Number mean: 0.0148437 max: 0.270417
smoothSolver:  Solving for Ux, Initial residual = 0.000370095, Final residual = 8.96999e-06, No Iterations 11
smoothSolver:  Solving for Uy, Initial residual = 0.00163553, Final residual = 9.49428e-06, No Iterations 13
DICPCG:  Solving for p, Initial residual = 0.00694479, Final residual = 0.000344471, No Iterations 228
time step continuity errors : sum local = 3.91178e-10, global = -2.71137e-12, cumulative = 1.17363e-08
DICPCG:  Solving for p, Initial residual = 0.0044451, Final residual = 9.81325e-07, No Iterations 594
time step continuity errors : sum local = 1.13619e-12, global = -1.16628e-13, cumulative = 1.17362e-08
ExecutionTime = 518.71 s  ClockTime = 519 s

Time = 2.3

Courant Number mean: 0.0148423 max: 0.270297
smoothSolver:  Solving for Ux, Initial residual = 0.000362171, Final residual = 8.72544e-06, No Iterations 11
smoothSolver:  Solving for Uy, Initial residual = 0.00161114, Final residual = 9.23652e-06, No Iterations 13
DICPCG:  Solving for p, Initial residual = 0.00674579, Final residual = 0.00033432, No Iterations 224
time step continuity errors : sum local = 3.79555e-10, global = -1.30342e-12, cumulative = 1.17349e-08
DICPCG:  Solving for p, Initial residual = 0.00445452, Final residual = 9.80676e-07, No Iterations 766
time step continuity errors : sum local = 1.10493e-12, global = -9.05252e-15, cumulative = 1.17349e-08
ExecutionTime = 529.6 s  ClockTime = 530 s

Time = 2.35

Courant Number mean: 0.0148408 max: 0.270162
smoothSolver:  Solving for Ux, Initial residual = 0.000353806, Final residual = 8.49123e-06, No Iterations 11
smoothSolver:  Solving for Uy, Initial residual = 0.00158234, Final residual = 9.02777e-06, No Iterations 13
DICPCG:  Solving for p, Initial residual = 0.00664474, Final residual = 0.000331501, No Iterations 224
time step continuity errors : sum local = 3.72094e-10, global = -2.23693e-12, cumulative = 1.17326e-08
DICPCG:  Solving for p, Initial residual = 0.00426285, Final residual = 9.76228e-07, No Iterations 592
time step continuity errors : sum local = 1.11482e-12, global = 8.9827e-14, cumulative = 1.17327e-08
ExecutionTime = 538.64 s  ClockTime = 539 s

Time = 2.4

Courant Number mean: 0.0148394 max: 0.270014
smoothSolver:  Solving for Ux, Initial residual = 0.000346396, Final residual = 8.26749e-06, No Iterations 11
smoothSolver:  Solving for Uy, Initial residual = 0.00155849, Final residual = 8.79399e-06, No Iterations 13
DICPCG:  Solving for p, Initial residual = 0.00648992, Final residual = 0.000317185, No Iterations 226
time step continuity errors : sum local = 3.5582e-10, global = -1.00464e-12, cumulative = 1.17317e-08
DICPCG:  Solving for p, Initial residual = 0.00426754, Final residual = 9.72848e-07, No Iterations 765
time step continuity errors : sum local = 1.08283e-12, global = -9.51128e-15, cumulative = 1.17317e-08
ExecutionTime = 549.38 s  ClockTime = 550 s

Time = 2.45

Courant Number mean: 0.014838 max: 0.269853
smoothSolver:  Solving for Ux, Initial residual = 0.000338663, Final residual = 9.98981e-06, No Iterations 10
smoothSolver:  Solving for Uy, Initial residual = 0.00153191, Final residual = 8.60135e-06, No Iterations 13
DICPCG:  Solving for p, Initial residual = 0.00690104, Final residual = 0.00034271, No Iterations 230
time step continuity errors : sum local = 3.80138e-10, global = -2.43371e-12, cumulative = 1.17293e-08
DICPCG:  Solving for p, Initial residual = 0.00506274, Final residual = 9.73513e-07, No Iterations 768
time step continuity errors : sum local = 1.09819e-12, global = -1.66968e-14, cumulative = 1.17293e-08
ExecutionTime = 560.33 s  ClockTime = 560 s

Time = 2.5

Courant Number mean: 0.0148366 max: 0.269678
smoothSolver:  Solving for Ux, Initial residual = 0.000329102, Final residual = 9.7865e-06, No Iterations 10
smoothSolver:  Solving for Uy, Initial residual = 0.00149281, Final residual = 8.42483e-06, No Iterations 13
DICPCG:  Solving for p, Initial residual = 0.00705148, Final residual = 0.000349131, No Iterations 229
time step continuity errors : sum local = 3.86066e-10, global = -1.93625e-12, cumulative = 1.17273e-08
DICPCG:  Solving for p, Initial residual = 0.00505054, Final residual = 9.93724e-07, No Iterations 769
time step continuity errors : sum local = 1.08859e-12, global = -1.29512e-14, cumulative = 1.17273e-08
ExecutionTime = 571.14 s  ClockTime = 571 s

Time = 2.55

Courant Number mean: 0.0148352 max: 0.269489
smoothSolver:  Solving for Ux, Initial residual = 0.000323078, Final residual = 9.5352e-06, No Iterations 10
smoothSolver:  Solving for Uy, Initial residual = 0.00147426, Final residual = 8.25209e-06, No Iterations 13
DICPCG:  Solving for p, Initial residual = 0.00682355, Final residual = 0.000338054, No Iterations 226
time step continuity errors : sum local = 3.70247e-10, global = -2.21126e-12, cumulative = 1.17251e-08
DICPCG:  Solving for p, Initial residual = 0.00485263, Final residual = 9.72461e-07, No Iterations 762
time step continuity errors : sum local = 1.08243e-12, global = -9.96764e-15, cumulative = 1.17251e-08
ExecutionTime = 581.95 s  ClockTime = 582 s

Time = 2.6

Courant Number mean: 0.0148339 max: 0.269289
smoothSolver:  Solving for Ux, Initial residual = 0.000316462, Final residual = 9.31221e-06, No Iterations 10
smoothSolver:  Solving for Uy, Initial residual = 0.00145108, Final residual = 9.9087e-06, No Iterations 12
DICPCG:  Solving for p, Initial residual = 0.00664211, Final residual = 0.000330891, No Iterations 230
time step continuity errors : sum local = 3.62117e-10, global = -1.3772e-12, cumulative = 1.17237e-08
DICPCG:  Solving for p, Initial residual = 0.00471571, Final residual = 9.92368e-07, No Iterations 768
time step continuity errors : sum local = 1.07761e-12, global = -1.24848e-14, cumulative = 1.17237e-08
ExecutionTime = 593.01 s  ClockTime = 593 s

Time = 2.65

Courant Number mean: 0.0148326 max: 0.26908
smoothSolver:  Solving for Ux, Initial residual = 0.000309912, Final residual = 9.09254e-06, No Iterations 10
smoothSolver:  Solving for Uy, Initial residual = 0.00142834, Final residual = 9.71766e-06, No Iterations 12
DICPCG:  Solving for p, Initial residual = 0.00650707, Final residual = 0.000324166, No Iterations 227
time step continuity errors : sum local = 3.5102e-10, global = -2.43482e-12, cumulative = 1.17213e-08
DICPCG:  Solving for p, Initial residual = 0.00449605, Final residual = 9.9127e-07, No Iterations 591
time step continuity errors : sum local = 1.09088e-12, global = -5.10149e-14, cumulative = 1.17212e-08
ExecutionTime = 602.06 s  ClockTime = 602 s

Time = 2.7

Courant Number mean: 0.0148313 max: 0.26886
smoothSolver:  Solving for Ux, Initial residual = 0.000304053, Final residual = 8.88273e-06, No Iterations 10
smoothSolver:  Solving for Uy, Initial residual = 0.00140818, Final residual = 9.49204e-06, No Iterations 12
DICPCG:  Solving for p, Initial residual = 0.00636809, Final residual = 0.000315507, No Iterations 227
time step continuity errors : sum local = 3.41563e-10, global = -1.28382e-12, cumulative = 1.17199e-08
DICPCG:  Solving for p, Initial residual = 0.00451569, Final residual = 9.64821e-07, No Iterations 768
time step continuity errors : sum local = 1.03718e-12, global = -1.22198e-14, cumulative = 1.17199e-08
ExecutionTime = 613.07 s  ClockTime = 613 s

Time = 2.75

Courant Number mean: 0.01483 max: 0.26863
smoothSolver:  Solving for Ux, Initial residual = 0.000297928, Final residual = 8.67865e-06, No Iterations 10
smoothSolver:  Solving for Uy, Initial residual = 0.00138625, Final residual = 9.30621e-06, No Iterations 12
DICPCG:  Solving for p, Initial residual = 0.00630277, Final residual = 0.000314, No Iterations 228
time step continuity errors : sum local = 3.36455e-10, global = -2.31582e-12, cumulative = 1.17176e-08
DICPCG:  Solving for p, Initial residual = 0.00435478, Final residual = 9.68604e-07, No Iterations 590
time step continuity errors : sum local = 1.05475e-12, global = -1.60028e-14, cumulative = 1.17176e-08
ExecutionTime = 622.1 s  ClockTime = 622 s

Time = 2.8

Courant Number mean: 0.0148287 max: 0.268391
smoothSolver:  Solving for Ux, Initial residual = 0.000292448, Final residual = 8.48205e-06, No Iterations 10
smoothSolver:  Solving for Uy, Initial residual = 0.0013675, Final residual = 9.10923e-06, No Iterations 12
DICPCG:  Solving for p, Initial residual = 0.0061741, Final residual = 0.000308565, No Iterations 226
time step continuity errors : sum local = 3.30561e-10, global = -1.15964e-12, cumulative = 1.17164e-08
DICPCG:  Solving for p, Initial residual = 0.00436701, Final residual = 9.77641e-07, No Iterations 767
time step continuity errors : sum local = 1.04027e-12, global = -1.11885e-14, cumulative = 1.17164e-08
ExecutionTime = 632.91 s  ClockTime = 633 s

Time = 2.85

Courant Number mean: 0.0148274 max: 0.268142
smoothSolver:  Solving for Ux, Initial residual = 0.000286688, Final residual = 8.29238e-06, No Iterations 10
smoothSolver:  Solving for Uy, Initial residual = 0.00134648, Final residual = 8.93287e-06, No Iterations 12
DICPCG:  Solving for p, Initial residual = 0.00613329, Final residual = 0.000304668, No Iterations 228
time step continuity errors : sum local = 3.23121e-10, global = -2.25701e-12, cumulative = 1.17142e-08
DICPCG:  Solving for p, Initial residual = 0.00423969, Final residual = 9.9412e-07, No Iterations 588
time step continuity errors : sum local = 1.07122e-12, global = -4.00872e-14, cumulative = 1.17141e-08
ExecutionTime = 641.73 s  ClockTime = 642 s

Time = 2.9

Courant Number mean: 0.0148262 max: 0.267886
smoothSolver:  Solving for Ux, Initial residual = 0.00028156, Final residual = 8.1086e-06, No Iterations 10
smoothSolver:  Solving for Uy, Initial residual = 0.00132879, Final residual = 8.75441e-06, No Iterations 12
DICPCG:  Solving for p, Initial residual = 0.00602786, Final residual = 0.000298463, No Iterations 227
time step continuity errors : sum local = 3.16502e-10, global = -1.19048e-12, cumulative = 1.17129e-08
DICPCG:  Solving for p, Initial residual = 0.00427227, Final residual = 9.79616e-07, No Iterations 764
time step continuity errors : sum local = 1.03194e-12, global = -9.68226e-15, cumulative = 1.17129e-08
ExecutionTime = 652.47 s  ClockTime = 653 s

Time = 2.95

Courant Number mean: 0.0148249 max: 0.267621
smoothSolver:  Solving for Ux, Initial residual = 0.000276143, Final residual = 9.90351e-06, No Iterations 9
smoothSolver:  Solving for Uy, Initial residual = 0.00130877, Final residual = 8.58807e-06, No Iterations 12
DICPCG:  Solving for p, Initial residual = 0.00658938, Final residual = 0.0003237, No Iterations 235
time step continuity errors : sum local = 3.39947e-10, global = -2.16371e-12, cumulative = 1.17108e-08
DICPCG:  Solving for p, Initial residual = 0.00524965, Final residual = 9.77426e-07, No Iterations 768
time step continuity errors : sum local = 1.0428e-12, global = -1.48486e-14, cumulative = 1.17108e-08
ExecutionTime = 663.33 s  ClockTime = 663 s

Time = 3

Courant Number mean: 0.0148237 max: 0.26735
smoothSolver:  Solving for Ux, Initial residual = 0.000268668, Final residual = 9.74958e-06, No Iterations 9
smoothSolver:  Solving for Uy, Initial residual = 0.00127496, Final residual = 8.47513e-06, No Iterations 12
DICPCG:  Solving for p, Initial residual = 0.00682213, Final residual = 0.000338125, No Iterations 230
time step continuity errors : sum local = 3.53959e-10, global = -1.9403e-12, cumulative = 1.17088e-08
DICPCG:  Solving for p, Initial residual = 0.00522007, Final residual = 9.78409e-07, No Iterations 769
time step continuity errors : sum local = 1.01615e-12, global = -9.218e-15, cumulative = 1.17088e-08
ExecutionTime = 676.65 s  ClockTime = 677 s

Time = 3.05

Courant Number mean: 0.0148226 max: 0.267069
smoothSolver:  Solving for Ux, Initial residual = 0.000264681, Final residual = 9.53506e-06, No Iterations 9
smoothSolver:  Solving for Uy, Initial residual = 0.00126238, Final residual = 8.31659e-06, No Iterations 12
DICPCG:  Solving for p, Initial residual = 0.00660081, Final residual = 0.000326877, No Iterations 228
time step continuity errors : sum local = 3.39427e-10, global = -1.98495e-12, cumulative = 1.17068e-08
DICPCG:  Solving for p, Initial residual = 0.00506735, Final residual = 9.89137e-07, No Iterations 761
time step continuity errors : sum local = 1.04287e-12, global = -7.67539e-15, cumulative = 1.17068e-08
ExecutionTime = 687.47 s  ClockTime = 688 s

Time = 3.1

Courant Number mean: 0.0148214 max: 0.266782
smoothSolver:  Solving for Ux, Initial residual = 0.000259963, Final residual = 9.34775e-06, No Iterations 9
smoothSolver:  Solving for Uy, Initial residual = 0.00124466, Final residual = 8.1693e-06, No Iterations 12
DICPCG:  Solving for p, Initial residual = 0.00654641, Final residual = 0.00032408, No Iterations 231
time step continuity errors : sum local = 3.36419e-10, global = -1.32337e-12, cumulative = 1.17055e-08
DICPCG:  Solving for p, Initial residual = 0.00509607, Final residual = 9.93148e-07, No Iterations 768
time step continuity errors : sum local = 1.02358e-12, global = -9.40623e-15, cumulative = 1.17055e-08
ExecutionTime = 698.27 s  ClockTime = 698 s

Time = 3.15

Courant Number mean: 0.0148202 max: 0.266488
smoothSolver:  Solving for Ux, Initial residual = 0.000255402, Final residual = 9.15848e-06, No Iterations 9
smoothSolver:  Solving for Uy, Initial residual = 0.00122806, Final residual = 9.92055e-06, No Iterations 11
DICPCG:  Solving for p, Initial residual = 0.00638671, Final residual = 0.00031676, No Iterations 229
time step continuity errors : sum local = 3.25743e-10, global = -2.23998e-12, cumulative = 1.17032e-08
DICPCG:  Solving for p, Initial residual = 0.00480758, Final residual = 9.98135e-07, No Iterations 590
time step continuity errors : sum local = 1.04272e-12, global = -3.17883e-14, cumulative = 1.17032e-08
ExecutionTime = 707.36 s  ClockTime = 708 s

Time = 3.2

Courant Number mean: 0.0148191 max: 0.26619
smoothSolver:  Solving for Ux, Initial residual = 0.000251089, Final residual = 8.98009e-06, No Iterations 9
smoothSolver:  Solving for Uy, Initial residual = 0.00121224, Final residual = 9.75362e-06, No Iterations 11
DICPCG:  Solving for p, Initial residual = 0.00620192, Final residual = 0.000306349, No Iterations 230
time step continuity errors : sum local = 3.15103e-10, global = -1.32864e-12, cumulative = 1.17019e-08
DICPCG:  Solving for p, Initial residual = 0.00475506, Final residual = 9.91667e-07, No Iterations 768
time step continuity errors : sum local = 1.01324e-12, global = -1.00755e-14, cumulative = 1.17019e-08
ExecutionTime = 718.15 s  ClockTime = 718 s

Time = 3.25

Courant Number mean: 0.0148179 max: 0.265885
smoothSolver:  Solving for Ux, Initial residual = 0.000246737, Final residual = 8.8054e-06, No Iterations 9
smoothSolver:  Solving for Uy, Initial residual = 0.00119566, Final residual = 9.57222e-06, No Iterations 11
DICPCG:  Solving for p, Initial residual = 0.00614938, Final residual = 0.000302463, No Iterations 229
time step continuity errors : sum local = 3.08253e-10, global = -2.19777e-12, cumulative = 1.16997e-08
DICPCG:  Solving for p, Initial residual = 0.0046133, Final residual = 9.86769e-07, No Iterations 591
time step continuity errors : sum local = 1.02115e-12, global = -9.7046e-14, cumulative = 1.16996e-08
ExecutionTime = 727.18 s  ClockTime = 727 s

Time = 3.3

Courant Number mean: 0.0148168 max: 0.265575
smoothSolver:  Solving for Ux, Initial residual = 0.00024279, Final residual = 8.63383e-06, No Iterations 9
smoothSolver:  Solving for Uy, Initial residual = 0.0011814, Final residual = 9.41492e-06, No Iterations 11
DICPCG:  Solving for p, Initial residual = 0.00603597, Final residual = 0.000300835, No Iterations 229
time step continuity errors : sum local = 3.06672e-10, global = -1.3666e-12, cumulative = 1.16982e-08
DICPCG:  Solving for p, Initial residual = 0.00463401, Final residual = 9.68824e-07, No Iterations 768
time step continuity errors : sum local = 9.81445e-13, global = -9.58817e-15, cumulative = 1.16982e-08
ExecutionTime = 737.89 s  ClockTime = 738 s

Time = 3.35

Courant Number mean: 0.0148157 max: 0.26526
smoothSolver:  Solving for Ux, Initial residual = 0.000238624, Final residual = 8.46892e-06, No Iterations 9
smoothSolver:  Solving for Uy, Initial residual = 0.00116529, Final residual = 9.25384e-06, No Iterations 11
DICPCG:  Solving for p, Initial residual = 0.00600038, Final residual = 0.000298019, No Iterations 229
time step continuity errors : sum local = 3.01107e-10, global = -2.05744e-12, cumulative = 1.16961e-08
DICPCG:  Solving for p, Initial residual = 0.00451038, Final residual = 9.87007e-07, No Iterations 589
time step continuity errors : sum local = 1.01237e-12, global = -6.56609e-14, cumulative = 1.16961e-08
ExecutionTime = 746.88 s  ClockTime = 747 s

Time = 3.4

Courant Number mean: 0.0148146 max: 0.26494
smoothSolver:  Solving for Ux, Initial residual = 0.000234911, Final residual = 8.30676e-06, No Iterations 9
smoothSolver:  Solving for Uy, Initial residual = 0.00115184, Final residual = 9.10596e-06, No Iterations 11
DICPCG:  Solving for p, Initial residual = 0.00590949, Final residual = 0.000293933, No Iterations 229
time step continuity errors : sum local = 2.97064e-10, global = -1.27614e-12, cumulative = 1.16948e-08
DICPCG:  Solving for p, Initial residual = 0.00453536, Final residual = 9.99642e-07, No Iterations 766
time step continuity errors : sum local = 1.00408e-12, global = -8.08819e-15, cumulative = 1.16948e-08
ExecutionTime = 757.6 s  ClockTime = 758 s

Time = 3.45

Courant Number mean: 0.0148135 max: 0.264615
smoothSolver:  Solving for Ux, Initial residual = 0.00023095, Final residual = 8.15116e-06, No Iterations 9
smoothSolver:  Solving for Uy, Initial residual = 0.00113636, Final residual = 8.95615e-06, No Iterations 11
DICPCG:  Solving for p, Initial residual = 0.00587811, Final residual = 0.00029224, No Iterations 229
time step continuity errors : sum local = 2.92773e-10, global = -2.02997e-12, cumulative = 1.16928e-08
DICPCG:  Solving for p, Initial residual = 0.00442103, Final residual = 9.92172e-07, No Iterations 589
time step continuity errors : sum local = 1.00875e-12, global = -8.91254e-14, cumulative = 1.16927e-08
ExecutionTime = 766.59 s  ClockTime = 767 s

Time = 3.5

Courant Number mean: 0.0148124 max: 0.264286
smoothSolver:  Solving for Ux, Initial residual = 0.00022744, Final residual = 7.99802e-06, No Iterations 9
smoothSolver:  Solving for Uy, Initial residual = 0.00112354, Final residual = 8.81696e-06, No Iterations 11
DICPCG:  Solving for p, Initial residual = 0.00578237, Final residual = 0.000288582, No Iterations 229
time step continuity errors : sum local = 2.89196e-10, global = -1.28427e-12, cumulative = 1.16914e-08
DICPCG:  Solving for p, Initial residual = 0.00444527, Final residual = 9.9621e-07, No Iterations 765
time step continuity errors : sum local = 9.92296e-13, global = -7.30463e-15, cumulative = 1.16914e-08
ExecutionTime = 777.32 s  ClockTime = 778 s

Time = 3.55

Courant Number mean: 0.0148114 max: 0.263953
smoothSolver:  Solving for Ux, Initial residual = 0.000223682, Final residual = 9.87125e-06, No Iterations 8
smoothSolver:  Solving for Uy, Initial residual = 0.0011087, Final residual = 8.67616e-06, No Iterations 11
DICPCG:  Solving for p, Initial residual = 0.00649181, Final residual = 0.000320895, No Iterations 235
time step continuity errors : sum local = 3.18847e-10, global = -1.9186e-12, cumulative = 1.16895e-08
DICPCG:  Solving for p, Initial residual = 0.0055772, Final residual = 9.80673e-07, No Iterations 768
time step continuity errors : sum local = 9.88983e-13, global = -1.28614e-14, cumulative = 1.16894e-08
ExecutionTime = 788.12 s  ClockTime = 788 s

Time = 3.6

Courant Number mean: 0.0148104 max: 0.263619
smoothSolver:  Solving for Ux, Initial residual = 0.000217697, Final residual = 9.76231e-06, No Iterations 8
smoothSolver:  Solving for Uy, Initial residual = 0.00107855, Final residual = 8.60766e-06, No Iterations 11
DICPCG:  Solving for p, Initial residual = 0.00677113, Final residual = 0.000337013, No Iterations 232
time step continuity errors : sum local = 3.33768e-10, global = -2.02115e-12, cumulative = 1.16874e-08
DICPCG:  Solving for p, Initial residual = 0.00552066, Final residual = 9.81625e-07, No Iterations 769
time step continuity errors : sum local = 9.65133e-13, global = -7.63988e-15, cumulative = 1.16874e-08
ExecutionTime = 798.89 s  ClockTime = 799 s

Time = 3.65

Courant Number mean: 0.0148093 max: 0.263279
smoothSolver:  Solving for Ux, Initial residual = 0.00021519, Final residual = 9.57561e-06, No Iterations 8
smoothSolver:  Solving for Uy, Initial residual = 0.00107086, Final residual = 8.47162e-06, No Iterations 11
DICPCG:  Solving for p, Initial residual = 0.00652782, Final residual = 0.000324041, No Iterations 229
time step continuity errors : sum local = 3.18731e-10, global = -1.83713e-12, cumulative = 1.16856e-08
DICPCG:  Solving for p, Initial residual = 0.00536263, Final residual = 9.87274e-07, No Iterations 597
time step continuity errors : sum local = 9.85242e-13, global = 1.5464e-13, cumulative = 1.16857e-08
ExecutionTime = 807.95 s  ClockTime = 808 s

Time = 3.7

Courant Number mean: 0.0148083 max: 0.262936
smoothSolver:  Solving for Ux, Initial residual = 0.000211853, Final residual = 9.41825e-06, No Iterations 8
smoothSolver:  Solving for Uy, Initial residual = 0.00105735, Final residual = 8.35335e-06, No Iterations 11
DICPCG:  Solving for p, Initial residual = 0.00650663, Final residual = 0.000319798, No Iterations 235
time step continuity errors : sum local = 3.14665e-10, global = -1.17865e-12, cumulative = 1.16846e-08
DICPCG:  Solving for p, Initial residual = 0.00541122, Final residual = 9.81207e-07, No Iterations 768
time step continuity errors : sum local = 9.58813e-13, global = -8.31678e-15, cumulative = 1.16845e-08
ExecutionTime = 818.67 s  ClockTime = 819 s

Time = 3.75

Courant Number mean: 0.0148073 max: 0.26259
smoothSolver:  Solving for Ux, Initial residual = 0.000208665, Final residual = 9.25565e-06, No Iterations 8
smoothSolver:  Solving for Uy, Initial residual = 0.00104526, Final residual = 8.24179e-06, No Iterations 11
DICPCG:  Solving for p, Initial residual = 0.00646992, Final residual = 0.000322121, No Iterations 230
time step continuity errors : sum local = 3.1421e-10, global = -2.23648e-12, cumulative = 1.16823e-08
DICPCG:  Solving for p, Initial residual = 0.00529976, Final residual = 9.68222e-07, No Iterations 761
time step continuity errors : sum local = 9.58232e-13, global = -1.18223e-14, cumulative = 1.16823e-08
ExecutionTime = 829.37 s  ClockTime = 830 s

Time = 3.8

Courant Number mean: 0.0148063 max: 0.262241
smoothSolver:  Solving for Ux, Initial residual = 0.000205738, Final residual = 9.10037e-06, No Iterations 8
smoothSolver:  Solving for Uy, Initial residual = 0.00103389, Final residual = 8.11979e-06, No Iterations 11
DICPCG:  Solving for p, Initial residual = 0.0063866, Final residual = 0.000318486, No Iterations 232
time step continuity errors : sum local = 3.10983e-10, global = -1.17818e-12, cumulative = 1.16811e-08
DICPCG:  Solving for p, Initial residual = 0.00533998, Final residual = 9.96361e-07, No Iterations 767
time step continuity errors : sum local = 9.66741e-13, global = -7.71111e-15, cumulative = 1.16811e-08
ExecutionTime = 840.23 s  ClockTime = 840 s

Time = 3.85

Courant Number mean: 0.0148053 max: 0.26189
smoothSolver:  Solving for Ux, Initial residual = 0.000202619, Final residual = 8.94836e-06, No Iterations 8
smoothSolver:  Solving for Uy, Initial residual = 0.00102147, Final residual = 9.95287e-06, No Iterations 10
DICPCG:  Solving for p, Initial residual = 0.00621623, Final residual = 0.000308426, No Iterations 232
time step continuity errors : sum local = 2.98608e-10, global = -2.17924e-12, cumulative = 1.16789e-08
DICPCG:  Solving for p, Initial residual = 0.00503425, Final residual = 9.96012e-07, No Iterations 596
time step continuity errors : sum local = 9.78952e-13, global = -1.42776e-13, cumulative = 1.16788e-08
ExecutionTime = 849.27 s  ClockTime = 849 s

Time = 3.9

Courant Number mean: 0.0148044 max: 0.261537
smoothSolver:  Solving for Ux, Initial residual = 0.000199748, Final residual = 8.80275e-06, No Iterations 8
smoothSolver:  Solving for Uy, Initial residual = 0.00101043, Final residual = 9.8261e-06, No Iterations 10
DICPCG:  Solving for p, Initial residual = 0.00602536, Final residual = 0.000298448, No Iterations 231
time step continuity errors : sum local = 2.89167e-10, global = -1.52051e-12, cumulative = 1.16773e-08
DICPCG:  Solving for p, Initial residual = 0.0049625, Final residual = 9.99681e-07, No Iterations 767
time step continuity errors : sum local = 9.63009e-13, global = -7.43779e-15, cumulative = 1.16773e-08
ExecutionTime = 860.04 s  ClockTime = 860 s

Time = 3.95

Courant Number mean: 0.0148034 max: 0.261181
smoothSolver:  Solving for Ux, Initial residual = 0.00019681, Final residual = 8.65975e-06, No Iterations 8
smoothSolver:  Solving for Uy, Initial residual = 0.000998302, Final residual = 9.67025e-06, No Iterations 10
DICPCG:  Solving for p, Initial residual = 0.00598316, Final residual = 0.000296385, No Iterations 230
time step continuity errors : sum local = 2.84914e-10, global = -1.90151e-12, cumulative = 1.16754e-08
DICPCG:  Solving for p, Initial residual = 0.00484234, Final residual = 9.79211e-07, No Iterations 591
time step continuity errors : sum local = 9.54977e-13, global = -9.78882e-14, cumulative = 1.16753e-08
ExecutionTime = 868.99 s  ClockTime = 869 s

Time = 4

Courant Number mean: 0.0148024 max: 0.260823
smoothSolver:  Solving for Ux, Initial residual = 0.000194173, Final residual = 8.51756e-06, No Iterations 8
smoothSolver:  Solving for Uy, Initial residual = 0.000988299, Final residual = 9.54772e-06, No Iterations 10
DICPCG:  Solving for p, Initial residual = 0.0058895, Final residual = 0.000291457, No Iterations 231
time step continuity errors : sum local = 2.80374e-10, global = -1.39805e-12, cumulative = 1.16739e-08
DICPCG:  Solving for p, Initial residual = 0.00485765, Final residual = 9.8459e-07, No Iterations 767
time step continuity errors : sum local = 9.41754e-13, global = -7.1607e-15, cumulative = 1.16739e-08
ExecutionTime = 882.22 s  ClockTime = 882 s

Time = 4.05

Courant Number mean: 0.0148015 max: 0.260463
smoothSolver:  Solving for Ux, Initial residual = 0.000191331, Final residual = 8.38069e-06, No Iterations 8
smoothSolver:  Solving for Uy, Initial residual = 0.000976597, Final residual = 9.41524e-06, No Iterations 10
DICPCG:  Solving for p, Initial residual = 0.00586753, Final residual = 0.000291897, No Iterations 230
time step continuity errors : sum local = 2.78606e-10, global = -1.91786e-12, cumulative = 1.16719e-08
DICPCG:  Solving for p, Initial residual = 0.00474758, Final residual = 9.91776e-07, No Iterations 594
time step continuity errors : sum local = 9.60128e-13, global = -1.39666e-13, cumulative = 1.16718e-08
ExecutionTime = 891.33 s  ClockTime = 892 s

Time = 4.1

Courant Number mean: 0.0148005 max: 0.260102
smoothSolver:  Solving for Ux, Initial residual = 0.000188828, Final residual = 8.24505e-06, No Iterations 8
smoothSolver:  Solving for Uy, Initial residual = 0.000967053, Final residual = 9.29692e-06, No Iterations 10
DICPCG:  Solving for p, Initial residual = 0.00578614, Final residual = 0.000286496, No Iterations 231
time step continuity errors : sum local = 2.7366e-10, global = -1.44421e-12, cumulative = 1.16704e-08
DICPCG:  Solving for p, Initial residual = 0.00477385, Final residual = 9.87939e-07, No Iterations 766
time step continuity errors : sum local = 9.38397e-13, global = -6.42824e-15, cumulative = 1.16703e-08
ExecutionTime = 902.08 s  ClockTime = 902 s

Time = 4.15

Courant Number mean: 0.0147996 max: 0.259738
smoothSolver:  Solving for Ux, Initial residual = 0.000186111, Final residual = 8.11449e-06, No Iterations 8
smoothSolver:  Solving for Uy, Initial residual = 0.00095577, Final residual = 9.17348e-06, No Iterations 10
DICPCG:  Solving for p, Initial residual = 0.00576085, Final residual = 0.00028675, No Iterations 230
time step continuity errors : sum local = 2.71834e-10, global = -1.81941e-12, cumulative = 1.16685e-08
DICPCG:  Solving for p, Initial residual = 0.00466522, Final residual = 9.89186e-07, No Iterations 590
time step continuity errors : sum local = 9.50847e-13, global = -1.11042e-13, cumulative = 1.16684e-08
ExecutionTime = 911.2 s  ClockTime = 911 s

Time = 4.2

Courant Number mean: 0.0147987 max: 0.259373
smoothSolver:  Solving for Ux, Initial residual = 0.000183724, Final residual = 7.98519e-06, No Iterations 8
smoothSolver:  Solving for Uy, Initial residual = 0.000946615, Final residual = 9.06012e-06, No Iterations 10
DICPCG:  Solving for p, Initial residual = 0.0056815, Final residual = 0.000282278, No Iterations 231
time step continuity errors : sum local = 2.67793e-10, global = -1.35971e-12, cumulative = 1.16671e-08
DICPCG:  Solving for p, Initial residual = 0.00469305, Final residual = 9.91331e-07, No Iterations 764
time step continuity errors : sum local = 9.3527e-13, global = -6.00689e-15, cumulative = 1.16671e-08
ExecutionTime = 922.04 s  ClockTime = 922 s

Time = 4.25

Courant Number mean: 0.0147978 max: 0.259007
smoothSolver:  Solving for Ux, Initial residual = 0.000181124, Final residual = 9.96239e-06, No Iterations 7
smoothSolver:  Solving for Uy, Initial residual = 0.000935756, Final residual = 8.94321e-06, No Iterations 10
DICPCG:  Solving for p, Initial residual = 0.00652404, Final residual = 0.000324219, No Iterations 235
time step continuity errors : sum local = 3.05293e-10, global = -1.75206e-12, cumulative = 1.16653e-08
DICPCG:  Solving for p, Initial residual = 0.00598677, Final residual = 9.79965e-07, No Iterations 768
time step continuity errors : sum local = 9.35697e-13, global = -1.18612e-14, cumulative = 1.16653e-08
ExecutionTime = 933.16 s  ClockTime = 933 s

Time = 4.3

Courant Number mean: 0.0147969 max: 0.258644
smoothSolver:  Solving for Ux, Initial residual = 0.000176166, Final residual = 9.89594e-06, No Iterations 7
smoothSolver:  Solving for Uy, Initial residual = 0.000908137, Final residual = 8.91438e-06, No Iterations 10
DICPCG:  Solving for p, Initial residual = 0.0068687, Final residual = 0.000342027, No Iterations 232
time step continuity errors : sum local = 3.20955e-10, global = -2.03395e-12, cumulative = 1.16633e-08
DICPCG:  Solving for p, Initial residual = 0.00592188, Final residual = 9.8033e-07, No Iterations 768
time step continuity errors : sum local = 9.14111e-13, global = -6.01515e-15, cumulative = 1.16632e-08
ExecutionTime = 944.13 s  ClockTime = 944 s

Time = 4.35

Courant Number mean: 0.014796 max: 0.258278
smoothSolver:  Solving for Ux, Initial residual = 0.000174699, Final residual = 9.72921e-06, No Iterations 7
smoothSolver:  Solving for Uy, Initial residual = 0.000904188, Final residual = 8.79593e-06, No Iterations 10
DICPCG:  Solving for p, Initial residual = 0.00659838, Final residual = 0.000327966, No Iterations 230
time step continuity errors : sum local = 3.06032e-10, global = -1.71221e-12, cumulative = 1.16615e-08
DICPCG:  Solving for p, Initial residual = 0.00576753, Final residual = 9.74567e-07, No Iterations 592
time step continuity errors : sum local = 9.22187e-13, global = 8.81544e-14, cumulative = 1.16616e-08
ExecutionTime = 953.15 s  ClockTime = 953 s

Time = 4.4

Courant Number mean: 0.0147952 max: 0.257911
smoothSolver:  Solving for Ux, Initial residual = 0.00017235, Final residual = 9.59614e-06, No Iterations 7
smoothSolver:  Solving for Uy, Initial residual = 0.000894125, Final residual = 8.70231e-06, No Iterations 10
DICPCG:  Solving for p, Initial residual = 0.00658359, Final residual = 0.000319281, No Iterations 236
time step continuity errors : sum local = 2.98183e-10, global = -1.35027e-12, cumulative = 1.16603e-08
DICPCG:  Solving for p, Initial residual = 0.00581302, Final residual = 9.96252e-07, No Iterations 768
time step continuity errors : sum local = 9.24387e-13, global = -7.76099e-15, cumulative = 1.16603e-08
ExecutionTime = 964.15 s  ClockTime = 964 s

Time = 4.45

Courant Number mean: 0.0147943 max: 0.257543
smoothSolver:  Solving for Ux, Initial residual = 0.000170148, Final residual = 9.45504e-06, No Iterations 7
smoothSolver:  Solving for Uy, Initial residual = 0.00088546, Final residual = 8.60928e-06, No Iterations 10
DICPCG:  Solving for p, Initial residual = 0.00655902, Final residual = 0.000324948, No Iterations 231
time step continuity errors : sum local = 3.01141e-10, global = -2.10419e-12, cumulative = 1.16582e-08
DICPCG:  Solving for p, Initial residual = 0.00569795, Final residual = 9.69158e-07, No Iterations 762
time step continuity errors : sum local = 9.10745e-13, global = -8.18775e-15, cumulative = 1.16582e-08
ExecutionTime = 975 s  ClockTime = 975 s

Time = 4.5

Courant Number mean: 0.0147934 max: 0.257174
smoothSolver:  Solving for Ux, Initial residual = 0.000168135, Final residual = 9.32061e-06, No Iterations 7
smoothSolver:  Solving for Uy, Initial residual = 0.00087724, Final residual = 8.50636e-06, No Iterations 10
DICPCG:  Solving for p, Initial residual = 0.00647918, Final residual = 0.000321162, No Iterations 235
time step continuity errors : sum local = 2.98108e-10, global = -1.2997e-12, cumulative = 1.16569e-08
DICPCG:  Solving for p, Initial residual = 0.00573593, Final residual = 9.75869e-07, No Iterations 768
time step continuity errors : sum local = 9.00339e-13, global = -7.72725e-15, cumulative = 1.16568e-08
ExecutionTime = 986.03 s  ClockTime = 986 s

Time = 4.55

Courant Number mean: 0.0147926 max: 0.256805
smoothSolver:  Solving for Ux, Initial residual = 0.000165948, Final residual = 9.18807e-06, No Iterations 7
smoothSolver:  Solving for Uy, Initial residual = 0.000868206, Final residual = 8.41263e-06, No Iterations 10
DICPCG:  Solving for p, Initial residual = 0.00646825, Final residual = 0.00032325, No Iterations 231
time step continuity errors : sum local = 2.9776e-10, global = -1.98837e-12, cumulative = 1.16549e-08
DICPCG:  Solving for p, Initial residual = 0.00561928, Final residual = 9.86394e-07, No Iterations 761
time step continuity errors : sum local = 9.21238e-13, global = -8.02791e-15, cumulative = 1.16549e-08
ExecutionTime = 996.86 s  ClockTime = 997 s

Time = 4.6

Courant Number mean: 0.0147917 max: 0.256434
smoothSolver:  Solving for Ux, Initial residual = 0.000164049, Final residual = 9.05767e-06, No Iterations 7
smoothSolver:  Solving for Uy, Initial residual = 0.000860558, Final residual = 8.31507e-06, No Iterations 10
DICPCG:  Solving for p, Initial residual = 0.00637993, Final residual = 0.000316676, No Iterations 235
time step continuity errors : sum local = 2.92173e-10, global = -1.26936e-12, cumulative = 1.16536e-08
DICPCG:  Solving for p, Initial residual = 0.00565431, Final residual = 9.59555e-07, No Iterations 768
time step continuity errors : sum local = 8.80022e-13, global = -7.60724e-15, cumulative = 1.16536e-08
ExecutionTime = 1007.66 s  ClockTime = 1008 s

Time = 4.65

Courant Number mean: 0.0147909 max: 0.256064
smoothSolver:  Solving for Ux, Initial residual = 0.000161935, Final residual = 8.93069e-06, No Iterations 7
smoothSolver:  Solving for Uy, Initial residual = 0.000851728, Final residual = 8.22551e-06, No Iterations 10
DICPCG:  Solving for p, Initial residual = 0.00636647, Final residual = 0.000314821, No Iterations 232
time step continuity errors : sum local = 2.8828e-10, global = -1.98883e-12, cumulative = 1.16516e-08
DICPCG:  Solving for p, Initial residual = 0.00553584, Final residual = 9.71141e-07, No Iterations 761
time step continuity errors : sum local = 9.01426e-13, global = -7.51999e-15, cumulative = 1.16516e-08
ExecutionTime = 1018.39 s  ClockTime = 1019 s

Time = 4.7

Courant Number mean: 0.0147901 max: 0.255693
smoothSolver:  Solving for Ux, Initial residual = 0.000160118, Final residual = 8.80525e-06, No Iterations 7
smoothSolver:  Solving for Uy, Initial residual = 0.000844412, Final residual = 8.13259e-06, No Iterations 10
DICPCG:  Solving for p, Initial residual = 0.00626708, Final residual = 0.000309622, No Iterations 235
time step continuity errors : sum local = 2.83975e-10, global = -1.23582e-12, cumulative = 1.16503e-08
DICPCG:  Solving for p, Initial residual = 0.0055638, Final residual = 9.74701e-07, No Iterations 767
time step continuity errors : sum local = 8.88818e-13, global = -7.02285e-15, cumulative = 1.16503e-08
ExecutionTime = 1029.23 s  ClockTime = 1029 s

Time = 4.75

Courant Number mean: 0.0147892 max: 0.255321
smoothSolver:  Solving for Ux, Initial residual = 0.000158084, Final residual = 8.68346e-06, No Iterations 7
smoothSolver:  Solving for Uy, Initial residual = 0.000835798, Final residual = 8.04516e-06, No Iterations 10
DICPCG:  Solving for p, Initial residual = 0.0062616, Final residual = 0.000312988, No Iterations 231
time step continuity errors : sum local = 2.84961e-10, global = -1.89168e-12, cumulative = 1.16484e-08
DICPCG:  Solving for p, Initial residual = 0.00544992, Final residual = 9.99485e-07, No Iterations 760
time step continuity errors : sum local = 9.22132e-13, global = -7.2055e-15, cumulative = 1.16484e-08
ExecutionTime = 1040.02 s  ClockTime = 1040 s

Time = 4.8

Courant Number mean: 0.0147884 max: 0.25495
smoothSolver:  Solving for Ux, Initial residual = 0.000156344, Final residual = 8.56277e-06, No Iterations 7
smoothSolver:  Solving for Uy, Initial residual = 0.000828737, Final residual = 9.95983e-06, No Iterations 9
DICPCG:  Solving for p, Initial residual = 0.00603247, Final residual = 0.000295341, No Iterations 235
time step continuity errors : sum local = 2.69325e-10, global = -1.25925e-12, cumulative = 1.16472e-08
DICPCG:  Solving for p, Initial residual = 0.00529324, Final residual = 9.86292e-07, No Iterations 767
time step continuity errors : sum local = 8.94651e-13, global = -6.42709e-15, cumulative = 1.16472e-08
ExecutionTime = 1050.81 s  ClockTime = 1051 s

Time = 4.85

Courant Number mean: 0.0147876 max: 0.254578
smoothSolver:  Solving for Ux, Initial residual = 0.00015428, Final residual = 8.45007e-06, No Iterations 7
smoothSolver:  Solving for Uy, Initial residual = 0.000819832, Final residual = 9.86907e-06, No Iterations 9
DICPCG:  Solving for p, Initial residual = 0.00592048, Final residual = 0.000295655, No Iterations 231
time step continuity errors : sum local = 2.67634e-10, global = -1.98644e-12, cumulative = 1.16452e-08
DICPCG:  Solving for p, Initial residual = 0.00508835, Final residual = 9.9177e-07, No Iterations 757
time step continuity errors : sum local = 9.09764e-13, global = -1.07123e-14, cumulative = 1.16452e-08
ExecutionTime = 1061.6 s  ClockTime = 1062 s

Time = 4.9

Courant Number mean: 0.0147868 max: 0.254207
smoothSolver:  Solving for Ux, Initial residual = 0.000152646, Final residual = 8.33512e-06, No Iterations 7
smoothSolver:  Solving for Uy, Initial residual = 0.000813151, Final residual = 9.74186e-06, No Iterations 9
DICPCG:  Solving for p, Initial residual = 0.00582595, Final residual = 0.000290055, No Iterations 232
time step continuity errors : sum local = 2.62996e-10, global = -1.15999e-12, cumulative = 1.1644e-08
DICPCG:  Solving for p, Initial residual = 0.00512095, Final residual = 9.95998e-07, No Iterations 764
time step continuity errors : sum local = 8.9847e-13, global = -5.82327e-15, cumulative = 1.1644e-08
ExecutionTime = 1072.34 s  ClockTime = 1073 s

Time = 4.95

Courant Number mean: 0.014786 max: 0.253835
smoothSolver:  Solving for Ux, Initial residual = 0.000150761, Final residual = 8.22348e-06, No Iterations 7
smoothSolver:  Solving for Uy, Initial residual = 0.000804966, Final residual = 9.64118e-06, No Iterations 9
DICPCG:  Solving for p, Initial residual = 0.00577543, Final residual = 0.000288501, No Iterations 231
time step continuity errors : sum local = 2.59735e-10, global = -1.91336e-12, cumulative = 1.16421e-08
DICPCG:  Solving for p, Initial residual = 0.00498412, Final residual = 9.90922e-07, No Iterations 757
time step continuity errors : sum local = 9.03985e-13, global = -1.02814e-14, cumulative = 1.16421e-08
ExecutionTime = 1083.07 s  ClockTime = 1083 s

Time = 5

Courant Number mean: 0.0147852 max: 0.253464
smoothSolver:  Solving for Ux, Initial residual = 0.000149164, Final residual = 8.11228e-06, No Iterations 7
smoothSolver:  Solving for Uy, Initial residual = 0.000798544, Final residual = 9.54066e-06, No Iterations 9
DICPCG:  Solving for p, Initial residual = 0.00570873, Final residual = 0.000285219, No Iterations 233
time step continuity errors : sum local = 2.57194e-10, global = -1.18754e-12, cumulative = 1.16409e-08
DICPCG:  Solving for p, Initial residual = 0.00501333, Final residual = 9.96304e-07, No Iterations 763
time step continuity errors : sum local = 8.93794e-13, global = -6.18909e-15, cumulative = 1.16409e-08
ExecutionTime = 1096.24 s  ClockTime = 1096 s

Time = 5.05

Courant Number mean: 0.0147844 max: 0.253092
smoothSolver:  Solving for Ux, Initial residual = 0.000147357, Final residual = 8.0046e-06, No Iterations 7
smoothSolver:  Solving for Uy, Initial residual = 0.000790692, Final residual = 9.44462e-06, No Iterations 9
DICPCG:  Solving for p, Initial residual = 0.00568481, Final residual = 0.00028132, No Iterations 232
time step continuity errors : sum local = 2.51929e-10, global = -1.90911e-12, cumulative = 1.1639e-08
DICPCG:  Solving for p, Initial residual = 0.00490763, Final residual = 9.74233e-07, No Iterations 757
time step continuity errors : sum local = 8.83746e-13, global = -1.01255e-14, cumulative = 1.1639e-08
ExecutionTime = 1106.94 s  ClockTime = 1107 s

Time = 5.1

Courant Number mean: 0.0147837 max: 0.25272
smoothSolver:  Solving for Ux, Initial residual = 0.000145819, Final residual = 7.89772e-06, No Iterations 7
smoothSolver:  Solving for Uy, Initial residual = 0.00078446, Final residual = 9.34987e-06, No Iterations 9
DICPCG:  Solving for p, Initial residual = 0.0056051, Final residual = 0.000280083, No Iterations 232
time step continuity errors : sum local = 2.51211e-10, global = -1.13142e-12, cumulative = 1.16378e-08
DICPCG:  Solving for p, Initial residual = 0.00493639, Final residual = 9.79977e-07, No Iterations 762
time step continuity errors : sum local = 8.74656e-13, global = -6.63764e-15, cumulative = 1.16378e-08
ExecutionTime = 1117.75 s  ClockTime = 1118 s

Time = 5.15

Courant Number mean: 0.0147829 max: 0.252349
smoothSolver:  Solving for Ux, Initial residual = 0.000144084, Final residual = 9.97654e-06, No Iterations 6
smoothSolver:  Solving for Uy, Initial residual = 0.000776806, Final residual = 9.25326e-06, No Iterations 9
DICPCG:  Solving for p, Initial residual = 0.0065912, Final residual = 0.000317128, No Iterations 236
time step continuity errors : sum local = 2.82531e-10, global = -1.77199e-12, cumulative = 1.16361e-08
DICPCG:  Solving for p, Initial residual = 0.00639943, Final residual = 9.95035e-07, No Iterations 765
time step continuity errors : sum local = 8.97873e-13, global = -9.35331e-15, cumulative = 1.16361e-08
ExecutionTime = 1128.77 s  ClockTime = 1129 s

Time = 5.2

Courant Number mean: 0.0147822 max: 0.251986
smoothSolver:  Solving for Ux, Initial residual = 0.000139935, Final residual = 9.95478e-06, No Iterations 6
smoothSolver:  Solving for Uy, Initial residual = 0.000751234, Final residual = 9.26835e-06, No Iterations 9
DICPCG:  Solving for p, Initial residual = 0.00702705, Final residual = 0.000350948, No Iterations 226
time step continuity errors : sum local = 3.11541e-10, global = -1.70509e-12, cumulative = 1.16343e-08
DICPCG:  Solving for p, Initial residual = 0.00634132, Final residual = 9.7497e-07, No Iterations 594
time step continuity errors : sum local = 8.61265e-13, global = 2.86529e-14, cumulative = 1.16344e-08
ExecutionTime = 1137.64 s  ClockTime = 1138 s

Time = 5.25

Courant Number mean: 0.0147814 max: 0.251621
smoothSolver:  Solving for Ux, Initial residual = 0.000139227, Final residual = 9.80733e-06, No Iterations 6
smoothSolver:  Solving for Uy, Initial residual = 0.000749889, Final residual = 9.15416e-06, No Iterations 9
DICPCG:  Solving for p, Initial residual = 0.00673068, Final residual = 0.000334786, No Iterations 231
time step continuity errors : sum local = 2.95866e-10, global = -1.53609e-12, cumulative = 1.16328e-08
DICPCG:  Solving for p, Initial residual = 0.00617054, Final residual = 9.68282e-07, No Iterations 592
time step continuity errors : sum local = 8.67702e-13, global = 3.03498e-14, cumulative = 1.16329e-08
ExecutionTime = 1146.73 s  ClockTime = 1147 s

Time = 5.3

Courant Number mean: 0.0147807 max: 0.251256
smoothSolver:  Solving for Ux, Initial residual = 0.000137655, Final residual = 9.69733e-06, No Iterations 6
smoothSolver:  Solving for Uy, Initial residual = 0.000743071, Final residual = 9.09432e-06, No Iterations 9
DICPCG:  Solving for p, Initial residual = 0.00674481, Final residual = 0.000332821, No Iterations 236
time step continuity errors : sum local = 2.94561e-10, global = -1.5193e-12, cumulative = 1.16314e-08
DICPCG:  Solving for p, Initial residual = 0.00625924, Final residual = 9.86343e-07, No Iterations 768
time step continuity errors : sum local = 8.67526e-13, global = -6.77992e-15, cumulative = 1.16313e-08
ExecutionTime = 1157.52 s  ClockTime = 1158 s

Time = 5.35

Courant Number mean: 0.01478 max: 0.250892
smoothSolver:  Solving for Ux, Initial residual = 0.000136185, Final residual = 9.57887e-06, No Iterations 6
smoothSolver:  Solving for Uy, Initial residual = 0.000736953, Final residual = 9.01158e-06, No Iterations 9
DICPCG:  Solving for p, Initial residual = 0.00671931, Final residual = 0.000332578, No Iterations 230
time step continuity errors : sum local = 2.9234e-10, global = -1.91615e-12, cumulative = 1.16294e-08
DICPCG:  Solving for p, Initial residual = 0.00613125, Final residual = 9.76622e-07, No Iterations 762
time step continuity errors : sum local = 8.69789e-13, global = -2.85965e-15, cumulative = 1.16294e-08
ExecutionTime = 1168.37 s  ClockTime = 1169 s

Time = 5.4

Courant Number mean: 0.0147792 max: 0.250528
smoothSolver:  Solving for Ux, Initial residual = 0.000134879, Final residual = 9.46529e-06, No Iterations 6
smoothSolver:  Solving for Uy, Initial residual = 0.000731265, Final residual = 8.92563e-06, No Iterations 9
DICPCG:  Solving for p, Initial residual = 0.00664549, Final residual = 0.000323439, No Iterations 236
time step continuity errors : sum local = 2.84931e-10, global = -1.37008e-12, cumulative = 1.16281e-08
DICPCG:  Solving for p, Initial residual = 0.00617149, Final residual = 9.7385e-07, No Iterations 768
time step continuity errors : sum local = 8.52767e-13, global = -6.79105e-15, cumulative = 1.1628e-08
ExecutionTime = 1179.13 s  ClockTime = 1179 s

Time = 5.45

Courant Number mean: 0.0147785 max: 0.250164
[...]
time step continuity errors : sum local = 6.60423e-13, global = -6.98177e-15, cumulative = 1.10766e-08
ExecutionTime = 8149.55 s  ClockTime = 8151 s

Time = 38.7

Courant Number mean: 0.0146082 max: 0.158708
smoothSolver:  Solving for Ux, Initial residual = 2.28991e-05, Final residual = 7.08294e-06, No Iterations 1
smoothSolver:  Solving for Uy, Initial residual = 0.000166505, Final residual = 8.96708e-06, No Iterations 3
DICPCG:  Solving for p, Initial residual = 0.00627274, Final residual = 0.000311982, No Iterations 192
time step continuity errors : sum local = 2.0622e-10, global = -9.61569e-13, cumulative = 1.10756e-08
DICPCG:  Solving for p, Initial residual = 0.0062916, Final residual = 9.9493e-07, No Iterations 764
time step continuity errors : sum local = 6.63118e-13, global = -6.79715e-15, cumulative = 1.10756e-08
ExecutionTime = 8159.67 s  ClockTime = 8161 s

Time = 38.75

Courant Number mean: 0.014608 max: 0.158652
smoothSolver:  Solving for Ux, Initial residual = 2.28817e-05, Final residual = 7.07546e-06, No Iterations 1
smoothSolver:  Solving for Uy, Initial residual = 0.000166412, Final residual = 8.9573e-06, No Iterations 3
DICPCG:  Solving for p, Initial residual = 0.00626725, Final residual = 0.000312441, No Iterations 192
time step continuity errors : sum local = 2.06508e-10, global = -9.60999e-13, cumulative = 1.10746e-08
DICPCG:  Solving for p, Initial residual = 0.00628576, Final residual = 9.98677e-07, No Iterations 763
time step continuity errors : sum local = 6.65567e-13, global = -6.97236e-15, cumulative = 1.10746e-08
ExecutionTime = 8169.76 s  ClockTime = 8171 s

Time = 38.8

Courant Number mean: 0.0146079 max: 0.158596
smoothSolver:  Solving for Ux, Initial residual = 2.28641e-05, Final residual = 7.06795e-06, No Iterations 1
smoothSolver:  Solving for Uy, Initial residual = 0.000166319, Final residual = 8.94593e-06, No Iterations 3
DICPCG:  Solving for p, Initial residual = 0.00626253, Final residual = 0.000312469, No Iterations 192
time step continuity errors : sum local = 2.06512e-10, global = -9.61575e-13, cumulative = 1.10737e-08
DICPCG:  Solving for p, Initial residual = 0.00628354, Final residual = 9.98938e-07, No Iterations 763
time step continuity errors : sum local = 6.65697e-13, global = -7.01635e-15, cumulative = 1.10737e-08
ExecutionTime = 8179.84 s  ClockTime = 8181 s

Time = 38.85

Courant Number mean: 0.0146078 max: 0.15854
smoothSolver:  Solving for Ux, Initial residual = 2.28465e-05, Final residual = 7.06047e-06, No Iterations 1
smoothSolver:  Solving for Uy, Initial residual = 0.000166227, Final residual = 8.93748e-06, No Iterations 3
DICPCG:  Solving for p, Initial residual = 0.00625872, Final residual = 0.000312534, No Iterations 192
time step continuity errors : sum local = 2.0654e-10, global = -9.60839e-13, cumulative = 1.10727e-08
DICPCG:  Solving for p, Initial residual = 0.00627839, Final residual = 9.97854e-07, No Iterations 763
time step continuity errors : sum local = 6.64927e-13, global = -6.92655e-15, cumulative = 1.10727e-08
ExecutionTime = 8189.95 s  ClockTime = 8192 s

Time = 38.9

Courant Number mean: 0.0146076 max: 0.158484
smoothSolver:  Solving for Ux, Initial residual = 2.2829e-05, Final residual = 7.053e-06, No Iterations 1
smoothSolver:  Solving for Uy, Initial residual = 0.000166134, Final residual = 8.92593e-06, No Iterations 3
DICPCG:  Solving for p, Initial residual = 0.00625335, Final residual = 0.000312649, No Iterations 192
time step continuity errors : sum local = 2.06601e-10, global = -9.61726e-13, cumulative = 1.10717e-08
DICPCG:  Solving for p, Initial residual = 0.0062754, Final residual = 9.89362e-07, No Iterations 764
time step continuity errors : sum local = 6.59226e-13, global = -6.74442e-15, cumulative = 1.10717e-08
ExecutionTime = 8199.99 s  ClockTime = 8202 s

Time = 38.95

Courant Number mean: 0.0146075 max: 0.158428
smoothSolver:  Solving for Ux, Initial residual = 2.28115e-05, Final residual = 7.04553e-06, No Iterations 1
smoothSolver:  Solving for Uy, Initial residual = 0.000166043, Final residual = 8.91757e-06, No Iterations 3
DICPCG:  Solving for p, Initial residual = 0.00625, Final residual = 0.000307954, No Iterations 193
time step continuity errors : sum local = 2.03484e-10, global = -9.77978e-13, cumulative = 1.10708e-08
DICPCG:  Solving for p, Initial residual = 0.00626921, Final residual = 9.8117e-07, No Iterations 764
time step continuity errors : sum local = 6.53725e-13, global = -6.59305e-15, cumulative = 1.10707e-08
ExecutionTime = 8210.27 s  ClockTime = 8212 s

Time = 39

Courant Number mean: 0.0146073 max: 0.158372
smoothSolver:  Solving for Ux, Initial residual = 2.27946e-05, Final residual = 7.03783e-06, No Iterations 1
smoothSolver:  Solving for Uy, Initial residual = 0.000165951, Final residual = 8.90437e-06, No Iterations 3
DICPCG:  Solving for p, Initial residual = 0.00624664, Final residual = 0.000311577, No Iterations 192
time step continuity errors : sum local = 2.05863e-10, global = -9.60089e-13, cumulative = 1.10698e-08
DICPCG:  Solving for p, Initial residual = 0.00626393, Final residual = 9.89523e-07, No Iterations 764
time step continuity errors : sum local = 6.59238e-13, global = -6.61613e-15, cumulative = 1.10698e-08
ExecutionTime = 8222.94 s  ClockTime = 8225 s

Time = 39.05

Courant Number mean: 0.0146072 max: 0.158317
smoothSolver:  Solving for Ux, Initial residual = 2.27765e-05, Final residual = 7.03062e-06, No Iterations 1
smoothSolver:  Solving for Uy, Initial residual = 0.00016586, Final residual = 8.89856e-06, No Iterations 3
DICPCG:  Solving for p, Initial residual = 0.00624298, Final residual = 0.000310822, No Iterations 192
time step continuity errors : sum local = 2.0535e-10, global = -9.62704e-13, cumulative = 1.10688e-08
DICPCG:  Solving for p, Initial residual = 0.00625981, Final residual = 9.94104e-07, No Iterations 764
time step continuity errors : sum local = 6.62246e-13, global = -6.61179e-15, cumulative = 1.10688e-08
ExecutionTime = 8233.16 s  ClockTime = 8235 s

Time = 39.1

Courant Number mean: 0.0146071 max: 0.158261
smoothSolver:  Solving for Ux, Initial residual = 2.27593e-05, Final residual = 7.02322e-06, No Iterations 1
smoothSolver:  Solving for Uy, Initial residual = 0.000165766, Final residual = 8.88556e-06, No Iterations 3
DICPCG:  Solving for p, Initial residual = 0.00623545, Final residual = 0.000311089, No Iterations 192
time step continuity errors : sum local = 2.05511e-10, global = -9.62579e-13, cumulative = 1.10678e-08
DICPCG:  Solving for p, Initial residual = 0.00625328, Final residual = 9.99094e-07, No Iterations 764
time step continuity errors : sum local = 6.65524e-13, global = -6.57659e-15, cumulative = 1.10678e-08
ExecutionTime = 8243.38 s  ClockTime = 8245 s

Time = 39.15

Courant Number mean: 0.0146069 max: 0.158206
smoothSolver:  Solving for Ux, Initial residual = 2.27419e-05, Final residual = 7.01583e-06, No Iterations 1
smoothSolver:  Solving for Uy, Initial residual = 0.000165677, Final residual = 8.87762e-06, No Iterations 3
DICPCG:  Solving for p, Initial residual = 0.00623278, Final residual = 0.000307675, No Iterations 193
time step continuity errors : sum local = 2.03241e-10, global = -9.78958e-13, cumulative = 1.10669e-08
DICPCG:  Solving for p, Initial residual = 0.00625226, Final residual = 9.87106e-07, No Iterations 764
time step continuity errors : sum local = 6.575e-13, global = -6.47551e-15, cumulative = 1.10669e-08
ExecutionTime = 8253.85 s  ClockTime = 8255 s

Time = 39.2

Courant Number mean: 0.0146068 max: 0.15815
smoothSolver:  Solving for Ux, Initial residual = 2.27251e-05, Final residual = 7.00819e-06, No Iterations 1
smoothSolver:  Solving for Uy, Initial residual = 0.000165584, Final residual = 8.8644e-06, No Iterations 3
DICPCG:  Solving for p, Initial residual = 0.00622833, Final residual = 0.000307297, No Iterations 193
time step continuity errors : sum local = 2.02977e-10, global = -9.77775e-13, cumulative = 1.10659e-08
DICPCG:  Solving for p, Initial residual = 0.00624593, Final residual = 9.89426e-07, No Iterations 764
time step continuity errors : sum local = 6.59e-13, global = -6.39228e-15, cumulative = 1.10659e-08
ExecutionTime = 8264.04 s  ClockTime = 8266 s

Time = 39.25

Courant Number mean: 0.0146066 max: 0.158095
smoothSolver:  Solving for Ux, Initial residual = 2.27077e-05, Final residual = 7.00081e-06, No Iterations 1
smoothSolver:  Solving for Uy, Initial residual = 0.000165494, Final residual = 8.85592e-06, No Iterations 3
DICPCG:  Solving for p, Initial residual = 0.00622297, Final residual = 0.00031039, No Iterations 192
time step continuity errors : sum local = 2.05005e-10, global = -9.61992e-13, cumulative = 1.10649e-08
DICPCG:  Solving for p, Initial residual = 0.00623979, Final residual = 9.85818e-07, No Iterations 764
time step continuity errors : sum local = 6.56545e-13, global = -6.44959e-15, cumulative = 1.10649e-08
ExecutionTime = 8274.28 s  ClockTime = 8276 s

Time = 39.3

Courant Number mean: 0.0146065 max: 0.158039
smoothSolver:  Solving for Ux, Initial residual = 2.26899e-05, Final residual = 6.99368e-06, No Iterations 1
smoothSolver:  Solving for Uy, Initial residual = 0.000165401, Final residual = 8.84618e-06, No Iterations 3
DICPCG:  Solving for p, Initial residual = 0.0062198, Final residual = 0.000310426, No Iterations 192
time step continuity errors : sum local = 2.05015e-10, global = -9.63668e-13, cumulative = 1.10639e-08
DICPCG:  Solving for p, Initial residual = 0.00623793, Final residual = 9.96796e-07, No Iterations 764
time step continuity errors : sum local = 6.63815e-13, global = -6.50806e-15, cumulative = 1.10639e-08
ExecutionTime = 8284.43 s  ClockTime = 8286 s

Time = 39.35

Courant Number mean: 0.0146064 max: 0.157984
smoothSolver:  Solving for Ux, Initial residual = 2.26728e-05, Final residual = 6.98637e-06, No Iterations 1
smoothSolver:  Solving for Uy, Initial residual = 0.000165312, Final residual = 8.83716e-06, No Iterations 3
DICPCG:  Solving for p, Initial residual = 0.00621419, Final residual = 0.00030673, No Iterations 193
time step continuity errors : sum local = 2.02559e-10, global = -9.79568e-13, cumulative = 1.1063e-08
DICPCG:  Solving for p, Initial residual = 0.0062335, Final residual = 9.89003e-07, No Iterations 764
time step continuity errors : sum local = 6.58584e-13, global = -6.37945e-15, cumulative = 1.10629e-08
ExecutionTime = 8294.55 s  ClockTime = 8296 s

Time = 39.4

Courant Number mean: 0.0146062 max: 0.157929
smoothSolver:  Solving for Ux, Initial residual = 2.26561e-05, Final residual = 6.97879e-06, No Iterations 1
smoothSolver:  Solving for Uy, Initial residual = 0.00016522, Final residual = 8.82429e-06, No Iterations 3
DICPCG:  Solving for p, Initial residual = 0.00621058, Final residual = 0.000307235, No Iterations 193
time step continuity errors : sum local = 2.02878e-10, global = -9.78993e-13, cumulative = 1.1062e-08
DICPCG:  Solving for p, Initial residual = 0.00622765, Final residual = 9.94338e-07, No Iterations 763
time step continuity errors : sum local = 6.62091e-13, global = -6.47114e-15, cumulative = 1.1062e-08
ExecutionTime = 8304.41 s  ClockTime = 8306 s

Time = 39.45

Courant Number mean: 0.0146061 max: 0.157874
smoothSolver:  Solving for Ux, Initial residual = 2.26389e-05, Final residual = 6.97146e-06, No Iterations 1
smoothSolver:  Solving for Uy, Initial residual = 0.00016513, Final residual = 8.816e-06, No Iterations 3
DICPCG:  Solving for p, Initial residual = 0.00620528, Final residual = 0.000305807, No Iterations 193
time step continuity errors : sum local = 2.01921e-10, global = -9.78311e-13, cumulative = 1.1061e-08
DICPCG:  Solving for p, Initial residual = 0.00622431, Final residual = 9.89504e-07, No Iterations 764
time step continuity errors : sum local = 6.58828e-13, global = -6.24149e-15, cumulative = 1.1061e-08
ExecutionTime = 8314.62 s  ClockTime = 8316 s

Time = 39.5

Courant Number mean: 0.014606 max: 0.157818
smoothSolver:  Solving for Ux, Initial residual = 2.26217e-05, Final residual = 6.96417e-06, No Iterations 1
smoothSolver:  Solving for Uy, Initial residual = 0.000165038, Final residual = 8.80461e-06, No Iterations 3
DICPCG:  Solving for p, Initial residual = 0.00620066, Final residual = 0.000306621, No Iterations 193
time step continuity errors : sum local = 2.02444e-10, global = -9.7925e-13, cumulative = 1.106e-08
DICPCG:  Solving for p, Initial residual = 0.00621918, Final residual = 9.99785e-07, No Iterations 763
time step continuity errors : sum local = 6.65629e-13, global = -6.39479e-15, cumulative = 1.106e-08
ExecutionTime = 8324.75 s  ClockTime = 8326 s

Time = 39.55

Courant Number mean: 0.0146058 max: 0.157763
smoothSolver:  Solving for Ux, Initial residual = 2.26046e-05, Final residual = 6.95689e-06, No Iterations 1
smoothSolver:  Solving for Uy, Initial residual = 0.000164949, Final residual = 8.79597e-06, No Iterations 3
DICPCG:  Solving for p, Initial residual = 0.00619689, Final residual = 0.000306877, No Iterations 193
time step continuity errors : sum local = 2.02599e-10, global = -9.77948e-13, cumulative = 1.1059e-08
DICPCG:  Solving for p, Initial residual = 0.00621683, Final residual = 9.91185e-07, No Iterations 764
time step continuity errors : sum local = 6.59859e-13, global = -6.19593e-15, cumulative = 1.1059e-08
ExecutionTime = 8334.99 s  ClockTime = 8337 s

Time = 39.6

Courant Number mean: 0.0146057 max: 0.157708
smoothSolver:  Solving for Ux, Initial residual = 2.25875e-05, Final residual = 6.94963e-06, No Iterations 1
smoothSolver:  Solving for Uy, Initial residual = 0.000164857, Final residual = 8.78479e-06, No Iterations 3
DICPCG:  Solving for p, Initial residual = 0.00619191, Final residual = 0.000306049, No Iterations 193
time step continuity errors : sum local = 2.02039e-10, global = -9.80252e-13, cumulative = 1.1058e-08
DICPCG:  Solving for p, Initial residual = 0.00620925, Final residual = 9.97591e-07, No Iterations 764
time step continuity errors : sum local = 6.64079e-13, global = -6.14997e-15, cumulative = 1.1058e-08
ExecutionTime = 8345.08 s  ClockTime = 8347 s

Time = 39.65

Courant Number mean: 0.0146055 max: 0.157653
smoothSolver:  Solving for Ux, Initial residual = 2.25705e-05, Final residual = 6.94235e-06, No Iterations 1
smoothSolver:  Solving for Uy, Initial residual = 0.000164768, Final residual = 8.77609e-06, No Iterations 3
DICPCG:  Solving for p, Initial residual = 0.00618825, Final residual = 0.000307342, No Iterations 193
time step continuity errors : sum local = 2.02878e-10, global = -9.78958e-13, cumulative = 1.1057e-08
DICPCG:  Solving for p, Initial residual = 0.00620846, Final residual = 9.96197e-07, No Iterations 763
time step continuity errors : sum local = 6.63107e-13, global = -6.31193e-15, cumulative = 1.1057e-08
ExecutionTime = 8355.33 s  ClockTime = 8357 s

Time = 39.7

Courant Number mean: 0.0146054 max: 0.157599
smoothSolver:  Solving for Ux, Initial residual = 2.25535e-05, Final residual = 6.93512e-06, No Iterations 1
smoothSolver:  Solving for Uy, Initial residual = 0.000164677, Final residual = 8.76498e-06, No Iterations 3
DICPCG:  Solving for p, Initial residual = 0.00618348, Final residual = 0.000306442, No Iterations 193
time step continuity errors : sum local = 2.02269e-10, global = -9.79648e-13, cumulative = 1.10561e-08
DICPCG:  Solving for p, Initial residual = 0.00620247, Final residual = 9.88162e-07, No Iterations 763
time step continuity errors : sum local = 6.57716e-13, global = -6.30889e-15, cumulative = 1.1056e-08
ExecutionTime = 8365.51 s  ClockTime = 8367 s

Time = 39.75

Courant Number mean: 0.0146053 max: 0.157544
smoothSolver:  Solving for Ux, Initial residual = 2.25365e-05, Final residual = 6.92789e-06, No Iterations 1
smoothSolver:  Solving for Uy, Initial residual = 0.000164588, Final residual = 8.7566e-06, No Iterations 3
DICPCG:  Solving for p, Initial residual = 0.00618053, Final residual = 0.000306184, No Iterations 193
time step continuity errors : sum local = 2.02085e-10, global = -9.78722e-13, cumulative = 1.10551e-08
DICPCG:  Solving for p, Initial residual = 0.00619929, Final residual = 9.94321e-07, No Iterations 764
time step continuity errors : sum local = 6.61773e-13, global = -6.10596e-15, cumulative = 1.10551e-08
ExecutionTime = 8375.74 s  ClockTime = 8377 s

Time = 39.8

Courant Number mean: 0.0146051 max: 0.157489
smoothSolver:  Solving for Ux, Initial residual = 2.25195e-05, Final residual = 6.92068e-06, No Iterations 1
smoothSolver:  Solving for Uy, Initial residual = 0.000164497, Final residual = 8.74541e-06, No Iterations 3
DICPCG:  Solving for p, Initial residual = 0.00617487, Final residual = 0.000304233, No Iterations 193
time step continuity errors : sum local = 2.00784e-10, global = -9.79921e-13, cumulative = 1.10541e-08
DICPCG:  Solving for p, Initial residual = 0.00619228, Final residual = 9.91973e-07, No Iterations 764
time step continuity errors : sum local = 6.60166e-13, global = -6.0793e-15, cumulative = 1.10541e-08
ExecutionTime = 8385.91 s  ClockTime = 8388 s

Time = 39.85

Courant Number mean: 0.014605 max: 0.157434
smoothSolver:  Solving for Ux, Initial residual = 2.25026e-05, Final residual = 6.91348e-06, No Iterations 1
smoothSolver:  Solving for Uy, Initial residual = 0.000164409, Final residual = 8.73714e-06, No Iterations 3
DICPCG:  Solving for p, Initial residual = 0.00617138, Final residual = 0.000306439, No Iterations 193
time step continuity errors : sum local = 2.02226e-10, global = -9.79918e-13, cumulative = 1.10531e-08
DICPCG:  Solving for p, Initial residual = 0.00619013, Final residual = 9.95966e-07, No Iterations 764
time step continuity errors : sum local = 6.62778e-13, global = -6.06671e-15, cumulative = 1.10531e-08
ExecutionTime = 8396.08 s  ClockTime = 8398 s

Time = 39.9

Courant Number mean: 0.0146049 max: 0.15738
smoothSolver:  Solving for Ux, Initial residual = 2.24857e-05, Final residual = 6.90628e-06, No Iterations 1
smoothSolver:  Solving for Uy, Initial residual = 0.000164319, Final residual = 8.72583e-06, No Iterations 3
DICPCG:  Solving for p, Initial residual = 0.00616643, Final residual = 0.000304977, No Iterations 193
time step continuity errors : sum local = 2.01247e-10, global = -9.80376e-13, cumulative = 1.10521e-08
DICPCG:  Solving for p, Initial residual = 0.00618352, Final residual = 9.93518e-07, No Iterations 764
time step continuity errors : sum local = 6.61105e-13, global = -6.02913e-15, cumulative = 1.10521e-08
ExecutionTime = 8406.36 s  ClockTime = 8408 s

Time = 39.95

Courant Number mean: 0.0146047 max: 0.157325
smoothSolver:  Solving for Ux, Initial residual = 2.24689e-05, Final residual = 6.89911e-06, No Iterations 1
smoothSolver:  Solving for Uy, Initial residual = 0.000164231, Final residual = 8.71772e-06, No Iterations 3
DICPCG:  Solving for p, Initial residual = 0.00616271, Final residual = 0.000306774, No Iterations 193
time step continuity errors : sum local = 2.02418e-10, global = -9.79828e-13, cumulative = 1.10511e-08
DICPCG:  Solving for p, Initial residual = 0.00618292, Final residual = 9.9528e-07, No Iterations 764
time step continuity errors : sum local = 6.62233e-13, global = -6.02391e-15, cumulative = 1.10511e-08
ExecutionTime = 8416.45 s  ClockTime = 8418 s

Time = 40

Courant Number mean: 0.0146046 max: 0.157271
smoothSolver:  Solving for Ux, Initial residual = 2.2452e-05, Final residual = 6.89195e-06, No Iterations 1
smoothSolver:  Solving for Uy, Initial residual = 0.000164141, Final residual = 8.70642e-06, No Iterations 3
DICPCG:  Solving for p, Initial residual = 0.00615733, Final residual = 0.000304815, No Iterations 193
time step continuity errors : sum local = 2.01112e-10, global = -9.79881e-13, cumulative = 1.10501e-08
DICPCG:  Solving for p, Initial residual = 0.00617602, Final residual = 9.93415e-07, No Iterations 764
time step continuity errors : sum local = 6.60948e-13, global = -5.99523e-15, cumulative = 1.10501e-08
ExecutionTime = 8429.16 s  ClockTime = 8431 s

End

