/*---------------------------------------------------------------------------*\
  =========                 |
  \\      /  F ield         | OpenFOAM: The Open Source CFD Toolbox
   \\    /   O peration     | Website:  https://openfoam.org
    \\  /    A nd           | Version:  7
     \\/     M anipulation  |
\*---------------------------------------------------------------------------*/
Build  : 7-49b2b3b8b082
Exec   : icoFoam
Date   : May 14 2021
Time   : 21:12:01
Host   : "c401-084.stampede2.tacc.utexas.edu"
PID    : 18017
I/O    : uncollated
Case   : /work2/06781/jpborsos/stampede2/coe347/Final_Project/COE347/finalProject/results/highRe/spline05
nProcs : 1
sigFpe : Enabling floating point exception trapping (FOAM_SIGFPE).
fileModificationChecking : Monitoring run-time modified files using timeStampMaster (fileModificationSkew 10)
allowSystemOperations : Allowing user-supplied system call operations

// * * * * * * * * * * * * * * * * * * * * * * * * * * * * * * * * * * * * * //
Create time

Create mesh for time = 0

Reading transportProperties

Reading field p

Reading field U

Reading/calculating face flux field phi


Starting time loop

Time = 0.05

Courant Number mean: 0.00376469 max: 0.0617714
smoothSolver:  Solving for Ux, Initial residual = 1, Final residual = 4.18577e-06, No Iterations 7
smoothSolver:  Solving for Uy, Initial residual = 0, Final residual = 0, No Iterations 0
DICPCG:  Solving for p, Initial residual = 1, Final residual = 0.0485514, No Iterations 185
time step continuity errors : sum local = 1.21325e-07, global = 1.32398e-09, cumulative = 1.32398e-09
DICPCG:  Solving for p, Initial residual = 0.203517, Final residual = 8.31402e-07, No Iterations 252
time step continuity errors : sum local = 1.0978e-11, global = -3.61405e-14, cumulative = 1.32395e-09
ExecutionTime = 0.39 s  ClockTime = 0 s

Time = 0.1

Courant Number mean: 0.0037812 max: 0.0798136
smoothSolver:  Solving for Ux, Initial residual = 0.321684, Final residual = 4.51667e-06, No Iterations 5
smoothSolver:  Solving for Uy, Initial residual = 0.314539, Final residual = 5.2378e-06, No Iterations 5
DICPCG:  Solving for p, Initial residual = 0.225592, Final residual = 0.011086, No Iterations 119
time step continuity errors : sum local = 1.44446e-07, global = 2.96176e-08, cumulative = 3.09415e-08
DICPCG:  Solving for p, Initial residual = 0.267665, Final residual = 8.77784e-07, No Iterations 253
time step continuity errors : sum local = 8.87661e-12, global = -5.85602e-15, cumulative = 3.09415e-08
ExecutionTime = 0.56 s  ClockTime = 0 s

Time = 0.15

Courant Number mean: 0.00378041 max: 0.0832602
smoothSolver:  Solving for Ux, Initial residual = 0.0114452, Final residual = 6.06602e-06, No Iterations 4
smoothSolver:  Solving for Uy, Initial residual = 0.00772747, Final residual = 2.7596e-06, No Iterations 4
DICPCG:  Solving for p, Initial residual = 0.45433, Final residual = 0.0226468, No Iterations 54
time step continuity errors : sum local = 3.52953e-08, global = -2.61731e-10, cumulative = 3.06798e-08
DICPCG:  Solving for p, Initial residual = 0.130774, Final residual = 9.82354e-07, No Iterations 235
time step continuity errors : sum local = 1.27167e-12, global = -6.1929e-15, cumulative = 3.06798e-08
ExecutionTime = 0.68 s  ClockTime = 0 s

Time = 0.2

Courant Number mean: 0.00377768 max: 0.0801661
smoothSolver:  Solving for Ux, Initial residual = 0.0100499, Final residual = 2.99879e-06, No Iterations 4
smoothSolver:  Solving for Uy, Initial residual = 0.0144914, Final residual = 6.77275e-06, No Iterations 3
DICPCG:  Solving for p, Initial residual = 0.134657, Final residual = 0.00672659, No Iterations 55
time step continuity errors : sum local = 9.09345e-09, global = 2.22879e-11, cumulative = 3.07021e-08
DICPCG:  Solving for p, Initial residual = 0.0326524, Final residual = 9.93658e-07, No Iterations 227
time step continuity errors : sum local = 1.28686e-12, global = 3.78018e-14, cumulative = 3.07021e-08
ExecutionTime = 0.8 s  ClockTime = 0 s

Time = 0.25

Courant Number mean: 0.00377549 max: 0.0802267
smoothSolver:  Solving for Ux, Initial residual = 0.00608443, Final residual = 9.81091e-06, No Iterations 3
smoothSolver:  Solving for Uy, Initial residual = 0.0115283, Final residual = 6.21644e-06, No Iterations 3
DICPCG:  Solving for p, Initial residual = 0.084003, Final residual = 0.00403228, No Iterations 53
time step continuity errors : sum local = 4.91409e-09, global = -3.31737e-12, cumulative = 3.06988e-08
DICPCG:  Solving for p, Initial residual = 0.014096, Final residual = 9.47832e-07, No Iterations 222
time step continuity errors : sum local = 1.14569e-12, global = -3.70735e-15, cumulative = 3.06988e-08
ExecutionTime = 0.92 s  ClockTime = 1 s

Time = 0.3

Courant Number mean: 0.00377362 max: 0.0800967
smoothSolver:  Solving for Ux, Initial residual = 0.00433873, Final residual = 7.01184e-06, No Iterations 3
smoothSolver:  Solving for Uy, Initial residual = 0.0098342, Final residual = 5.3405e-06, No Iterations 3
DICPCG:  Solving for p, Initial residual = 0.0641395, Final residual = 0.00319217, No Iterations 52
time step continuity errors : sum local = 3.76514e-09, global = -1.03536e-12, cumulative = 3.06978e-08
DICPCG:  Solving for p, Initial residual = 0.0102504, Final residual = 9.0362e-07, No Iterations 220
time step continuity errors : sum local = 1.06108e-12, global = -6.55841e-15, cumulative = 3.06977e-08
ExecutionTime = 1.03 s  ClockTime = 1 s

Time = 0.35

Courant Number mean: 0.00377198 max: 0.0797996
smoothSolver:  Solving for Ux, Initial residual = 0.00333903, Final residual = 5.33134e-06, No Iterations 3
smoothSolver:  Solving for Uy, Initial residual = 0.00863128, Final residual = 4.6733e-06, No Iterations 3
DICPCG:  Solving for p, Initial residual = 0.0508876, Final residual = 0.0024389, No Iterations 52
time step continuity errors : sum local = 2.81754e-09, global = -7.90912e-13, cumulative = 3.0697e-08
DICPCG:  Solving for p, Initial residual = 0.0075155, Final residual = 9.64059e-07, No Iterations 217
time step continuity errors : sum local = 1.1136e-12, global = -1.74795e-14, cumulative = 3.06969e-08
ExecutionTime = 1.14 s  ClockTime = 1 s

Time = 0.4

Courant Number mean: 0.00377053 max: 0.07936
smoothSolver:  Solving for Ux, Initial residual = 0.00271155, Final residual = 4.23017e-06, No Iterations 3
smoothSolver:  Solving for Uy, Initial residual = 0.00773302, Final residual = 4.13112e-06, No Iterations 3
DICPCG:  Solving for p, Initial residual = 0.0414266, Final residual = 0.0019565, No Iterations 52
time step continuity errors : sum local = 2.23564e-09, global = -6.15155e-13, cumulative = 3.06963e-08
DICPCG:  Solving for p, Initial residual = 0.00583895, Final residual = 9.79771e-07, No Iterations 215
time step continuity errors : sum local = 1.12109e-12, global = -2.38157e-14, cumulative = 3.06963e-08
ExecutionTime = 1.27 s  ClockTime = 1 s

Time = 0.45

Courant Number mean: 0.00376921 max: 0.0788044
smoothSolver:  Solving for Ux, Initial residual = 0.00228505, Final residual = 3.46138e-06, No Iterations 3
smoothSolver:  Solving for Uy, Initial residual = 0.00703493, Final residual = 3.69258e-06, No Iterations 3
DICPCG:  Solving for p, Initial residual = 0.0343601, Final residual = 0.00169867, No Iterations 50
time step continuity errors : sum local = 1.92705e-09, global = -3.99544e-13, cumulative = 3.06959e-08
DICPCG:  Solving for p, Initial residual = 0.0047283, Final residual = 9.35953e-07, No Iterations 213
time step continuity errors : sum local = 1.06299e-12, global = -2.21268e-14, cumulative = 3.06959e-08
ExecutionTime = 1.38 s  ClockTime = 1 s

Time = 0.5

Courant Number mean: 0.003768 max: 0.078158
smoothSolver:  Solving for Ux, Initial residual = 0.00197565, Final residual = 2.89982e-06, No Iterations 3
smoothSolver:  Solving for Uy, Initial residual = 0.0064772, Final residual = 3.33014e-06, No Iterations 3
DICPCG:  Solving for p, Initial residual = 0.0289418, Final residual = 0.00139701, No Iterations 50
time step continuity errors : sum local = 1.57559e-09, global = -2.64759e-13, cumulative = 3.06956e-08
DICPCG:  Solving for p, Initial residual = 0.00389155, Final residual = 9.36659e-07, No Iterations 212
time step continuity errors : sum local = 1.05739e-12, global = -2.0114e-14, cumulative = 3.06956e-08
ExecutionTime = 1.49 s  ClockTime = 1 s

Time = 0.55

Courant Number mean: 0.00376688 max: 0.0774434
smoothSolver:  Solving for Ux, Initial residual = 0.00174169, Final residual = 2.47478e-06, No Iterations 3
smoothSolver:  Solving for Uy, Initial residual = 0.006019, Final residual = 3.02551e-06, No Iterations 3
DICPCG:  Solving for p, Initial residual = 0.0247466, Final residual = 0.00123154, No Iterations 49
time step continuity errors : sum local = 1.38138e-09, global = -1.97347e-13, cumulative = 3.06954e-08
DICPCG:  Solving for p, Initial residual = 0.00341307, Final residual = 9.59925e-07, No Iterations 211
time step continuity errors : sum local = 1.0768e-12, global = -1.92781e-14, cumulative = 3.06954e-08
ExecutionTime = 1.6 s  ClockTime = 1 s

Time = 0.6

Courant Number mean: 0.00376584 max: 0.07668
smoothSolver:  Solving for Ux, Initial residual = 0.00155892, Final residual = 2.14404e-06, No Iterations 3
smoothSolver:  Solving for Uy, Initial residual = 0.00563608, Final residual = 2.7644e-06, No Iterations 3
DICPCG:  Solving for p, Initial residual = 0.0217069, Final residual = 0.00105793, No Iterations 49
time step continuity errors : sum local = 1.1792e-09, global = -1.50605e-13, cumulative = 3.06952e-08
DICPCG:  Solving for p, Initial residual = 0.00295438, Final residual = 8.38423e-07, No Iterations 211
time step continuity errors : sum local = 9.33723e-13, global = -1.58393e-14, cumulative = 3.06952e-08
ExecutionTime = 1.72 s  ClockTime = 1 s

Time = 0.65

Courant Number mean: 0.00376486 max: 0.075884
smoothSolver:  Solving for Ux, Initial residual = 0.00141191, Final residual = 1.88052e-06, No Iterations 3
smoothSolver:  Solving for Uy, Initial residual = 0.00531207, Final residual = 2.53939e-06, No Iterations 3
DICPCG:  Solving for p, Initial residual = 0.0189704, Final residual = 0.000908959, No Iterations 49
time step continuity errors : sum local = 1.00654e-09, global = -1.30989e-13, cumulative = 3.06951e-08
DICPCG:  Solving for p, Initial residual = 0.00256605, Final residual = 8.76542e-07, No Iterations 210
time step continuity errors : sum local = 9.69662e-13, global = -1.65431e-14, cumulative = 3.06951e-08
ExecutionTime = 1.82 s  ClockTime = 1 s

Time = 0.7

Courant Number mean: 0.00376394 max: 0.075068
smoothSolver:  Solving for Ux, Initial residual = 0.00129121, Final residual = 9.10438e-06, No Iterations 2
smoothSolver:  Solving for Uy, Initial residual = 0.00503161, Final residual = 2.34319e-06, No Iterations 3
DICPCG:  Solving for p, Initial residual = 0.0168859, Final residual = 0.000797701, No Iterations 53
time step continuity errors : sum local = 8.77149e-10, global = -1.95317e-13, cumulative = 3.06949e-08
DICPCG:  Solving for p, Initial residual = 0.00337884, Final residual = 9.37626e-07, No Iterations 210
time step continuity errors : sum local = 1.02927e-12, global = -1.47171e-14, cumulative = 3.06948e-08
ExecutionTime = 1.93 s  ClockTime = 2 s

Time = 0.75

Courant Number mean: 0.00376307 max: 0.0742458
smoothSolver:  Solving for Ux, Initial residual = 0.00118863, Final residual = 8.19556e-06, No Iterations 2
smoothSolver:  Solving for Uy, Initial residual = 0.00477508, Final residual = 2.1702e-06, No Iterations 3
DICPCG:  Solving for p, Initial residual = 0.0153817, Final residual = 0.000746965, No Iterations 50
time step continuity errors : sum local = 8.15336e-10, global = -2.42726e-13, cumulative = 3.06946e-08
DICPCG:  Solving for p, Initial residual = 0.00304814, Final residual = 8.76385e-07, No Iterations 210
time step continuity errors : sum local = 9.54838e-13, global = -1.11361e-14, cumulative = 3.06946e-08
ExecutionTime = 2.05 s  ClockTime = 2 s

Time = 0.8

Courant Number mean: 0.00376223 max: 0.0734219
smoothSolver:  Solving for Ux, Initial residual = 0.00110381, Final residual = 7.42678e-06, No Iterations 2
smoothSolver:  Solving for Uy, Initial residual = 0.00456086, Final residual = 2.01884e-06, No Iterations 3
DICPCG:  Solving for p, Initial residual = 0.0139293, Final residual = 0.000677462, No Iterations 50
time step continuity errors : sum local = 7.34282e-10, global = -1.56723e-13, cumulative = 3.06944e-08
DICPCG:  Solving for p, Initial residual = 0.00283244, Final residual = 9.36347e-07, No Iterations 209
time step continuity errors : sum local = 1.01278e-12, global = -1.11474e-14, cumulative = 3.06944e-08
ExecutionTime = 2.16 s  ClockTime = 2 s

Time = 0.85

Courant Number mean: 0.00376143 max: 0.0726025
smoothSolver:  Solving for Ux, Initial residual = 0.00103079, Final residual = 6.77509e-06, No Iterations 2
smoothSolver:  Solving for Uy, Initial residual = 0.00436897, Final residual = 1.88438e-06, No Iterations 3
DICPCG:  Solving for p, Initial residual = 0.0127811, Final residual = 0.000621657, No Iterations 50
time step continuity errors : sum local = 6.68901e-10, global = -1.43147e-13, cumulative = 3.06943e-08
DICPCG:  Solving for p, Initial residual = 0.00264053, Final residual = 8.93297e-07, No Iterations 209
time step continuity errors : sum local = 9.58862e-13, global = -9.19255e-15, cumulative = 3.06943e-08
ExecutionTime = 2.27 s  ClockTime = 2 s

Time = 0.9

Courant Number mean: 0.00376067 max: 0.0717922
smoothSolver:  Solving for Ux, Initial residual = 0.000967288, Final residual = 6.21708e-06, No Iterations 2
smoothSolver:  Solving for Uy, Initial residual = 0.00419637, Final residual = 1.76429e-06, No Iterations 3
DICPCG:  Solving for p, Initial residual = 0.0118658, Final residual = 0.000592842, No Iterations 49
time step continuity errors : sum local = 6.33035e-10, global = -1.16223e-13, cumulative = 3.06942e-08
DICPCG:  Solving for p, Initial residual = 0.00249212, Final residual = 9.4869e-07, No Iterations 208
time step continuity errors : sum local = 1.01031e-12, global = -6.8222e-15, cumulative = 3.06942e-08
ExecutionTime = 2.38 s  ClockTime = 2 s

Time = 0.95

Courant Number mean: 0.00375994 max: 0.0709942
smoothSolver:  Solving for Ux, Initial residual = 0.000911531, Final residual = 5.73513e-06, No Iterations 2
smoothSolver:  Solving for Uy, Initial residual = 0.00403993, Final residual = 9.63538e-06, No Iterations 2
DICPCG:  Solving for p, Initial residual = 0.0111627, Final residual = 0.000543184, No Iterations 50
time step continuity errors : sum local = 5.75411e-10, global = -1.12223e-13, cumulative = 3.0694e-08
DICPCG:  Solving for p, Initial residual = 0.00229201, Final residual = 9.58292e-07, No Iterations 186
time step continuity errors : sum local = 1.01215e-12, global = 5.18845e-14, cumulative = 3.06941e-08
ExecutionTime = 2.48 s  ClockTime = 2 s

Time = 1

Courant Number mean: 0.00375923 max: 0.0702112
smoothSolver:  Solving for Ux, Initial residual = 0.000862016, Final residual = 5.31511e-06, No Iterations 2
smoothSolver:  Solving for Uy, Initial residual = 0.00389693, Final residual = 9.11502e-06, No Iterations 2
DICPCG:  Solving for p, Initial residual = 0.0106026, Final residual = 0.000517525, No Iterations 49
time step continuity errors : sum local = 5.43774e-10, global = -7.26977e-14, cumulative = 3.0694e-08
DICPCG:  Solving for p, Initial residual = 0.00216079, Final residual = 9.69339e-07, No Iterations 208
time step continuity errors : sum local = 1.01543e-12, global = -2.64866e-15, cumulative = 3.0694e-08
ExecutionTime = 2.78 s  ClockTime = 2 s

Time = 1.05

Courant Number mean: 0.00375855 max: 0.0694447
smoothSolver:  Solving for Ux, Initial residual = 0.000817881, Final residual = 4.94735e-06, No Iterations 2
smoothSolver:  Solving for Uy, Initial residual = 0.00376602, Final residual = 8.63208e-06, No Iterations 2
DICPCG:  Solving for p, Initial residual = 0.0101396, Final residual = 0.000487499, No Iterations 49
time step continuity errors : sum local = 5.08087e-10, global = -9.70368e-14, cumulative = 3.06939e-08
DICPCG:  Solving for p, Initial residual = 0.00205417, Final residual = 9.65e-07, No Iterations 184
time step continuity errors : sum local = 1.00263e-12, global = 4.15462e-14, cumulative = 3.0694e-08
ExecutionTime = 2.88 s  ClockTime = 3 s

Time = 1.1

Courant Number mean: 0.00375789 max: 0.0686958
smoothSolver:  Solving for Ux, Initial residual = 0.000778216, Final residual = 4.62251e-06, No Iterations 2
smoothSolver:  Solving for Uy, Initial residual = 0.00364517, Final residual = 8.19063e-06, No Iterations 2
DICPCG:  Solving for p, Initial residual = 0.00984941, Final residual = 0.000489913, No Iterations 48
time step continuity errors : sum local = 5.06407e-10, global = -4.30882e-14, cumulative = 3.06939e-08
DICPCG:  Solving for p, Initial residual = 0.00199327, Final residual = 9.63482e-07, No Iterations 207
time step continuity errors : sum local = 9.92674e-13, global = 4.16883e-16, cumulative = 3.06939e-08
ExecutionTime = 2.99 s  ClockTime = 3 s

Time = 1.15

Courant Number mean: 0.00375725 max: 0.0679652
smoothSolver:  Solving for Ux, Initial residual = 0.000742285, Final residual = 4.33372e-06, No Iterations 2
smoothSolver:  Solving for Uy, Initial residual = 0.0035338, Final residual = 7.78583e-06, No Iterations 2
DICPCG:  Solving for p, Initial residual = 0.00959177, Final residual = 0.00046635, No Iterations 48
time step continuity errors : sum local = 4.77929e-10, global = -6.56747e-14, cumulative = 3.06939e-08
DICPCG:  Solving for p, Initial residual = 0.00193146, Final residual = 9.26561e-07, No Iterations 183
time step continuity errors : sum local = 9.46173e-13, global = 2.78312e-14, cumulative = 3.06939e-08
ExecutionTime = 3.09 s  ClockTime = 3 s

Time = 1.2

Courant Number mean: 0.00375663 max: 0.0672533
smoothSolver:  Solving for Ux, Initial residual = 0.000709606, Final residual = 4.07555e-06, No Iterations 2
smoothSolver:  Solving for Uy, Initial residual = 0.00343022, Final residual = 7.41314e-06, No Iterations 2
DICPCG:  Solving for p, Initial residual = 0.00916898, Final residual = 0.000454038, No Iterations 47
time step continuity errors : sum local = 4.61174e-10, global = -2.60764e-14, cumulative = 3.06939e-08
DICPCG:  Solving for p, Initial residual = 0.00182595, Final residual = 9.83422e-07, No Iterations 206
time step continuity errors : sum local = 9.95229e-13, global = 3.0842e-15, cumulative = 3.06939e-08
ExecutionTime = 3.2 s  ClockTime = 3 s

Time = 1.25

Courant Number mean: 0.00375602 max: 0.0665601
smoothSolver:  Solving for Ux, Initial residual = 0.000679721, Final residual = 3.84362e-06, No Iterations 2
smoothSolver:  Solving for Uy, Initial residual = 0.00333335, Final residual = 7.07102e-06, No Iterations 2
DICPCG:  Solving for p, Initial residual = 0.00887924, Final residual = 0.000430521, No Iterations 47
time step continuity errors : sum local = 4.33405e-10, global = -3.75336e-14, cumulative = 3.06938e-08
DICPCG:  Solving for p, Initial residual = 0.00175778, Final residual = 9.54514e-07, No Iterations 186
time step continuity errors : sum local = 9.57394e-13, global = 5.30826e-14, cumulative = 3.06939e-08
ExecutionTime = 3.3 s  ClockTime = 3 s

Time = 1.3

Courant Number mean: 0.00375543 max: 0.0658856
smoothSolver:  Solving for Ux, Initial residual = 0.000652269, Final residual = 3.63414e-06, No Iterations 2
smoothSolver:  Solving for Uy, Initial residual = 0.00324275, Final residual = 6.7543e-06, No Iterations 2
DICPCG:  Solving for p, Initial residual = 0.00864576, Final residual = 0.000425074, No Iterations 45
time step continuity errors : sum local = 4.24158e-10, global = 1.7235e-14, cumulative = 3.06939e-08
DICPCG:  Solving for p, Initial residual = 0.00171016, Final residual = 9.69958e-07, No Iterations 206
time step continuity errors : sum local = 9.64327e-13, global = 1.21488e-15, cumulative = 3.06939e-08
ExecutionTime = 3.42 s  ClockTime = 3 s

Time = 1.35

Courant Number mean: 0.00375486 max: 0.0652295
smoothSolver:  Solving for Ux, Initial residual = 0.000626965, Final residual = 3.44458e-06, No Iterations 2
smoothSolver:  Solving for Uy, Initial residual = 0.00315738, Final residual = 6.46262e-06, No Iterations 2
DICPCG:  Solving for p, Initial residual = 0.00854095, Final residual = 0.000408716, No Iterations 45
time step continuity errors : sum local = 4.04316e-10, global = -2.20292e-14, cumulative = 3.06939e-08
DICPCG:  Solving for p, Initial residual = 0.00166373, Final residual = 9.42445e-07, No Iterations 206
time step continuity errors : sum local = 9.28995e-13, global = 1.41577e-15, cumulative = 3.06939e-08
ExecutionTime = 3.52 s  ClockTime = 3 s

Time = 1.4

Courant Number mean: 0.00375429 max: 0.0645914
smoothSolver:  Solving for Ux, Initial residual = 0.000603548, Final residual = 3.2721e-06, No Iterations 2
smoothSolver:  Solving for Uy, Initial residual = 0.00307695, Final residual = 6.19263e-06, No Iterations 2
DICPCG:  Solving for p, Initial residual = 0.00843899, Final residual = 0.000414695, No Iterations 44
time step continuity errors : sum local = 4.06636e-10, global = -3.10729e-15, cumulative = 3.06939e-08
DICPCG:  Solving for p, Initial residual = 0.0016208, Final residual = 8.8964e-07, No Iterations 206
time step continuity errors : sum local = 8.68987e-13, global = 6.75716e-16, cumulative = 3.06939e-08
ExecutionTime = 3.62 s  ClockTime = 3 s

Time = 1.45

Courant Number mean: 0.00375375 max: 0.063971
smoothSolver:  Solving for Ux, Initial residual = 0.000581741, Final residual = 3.11427e-06, No Iterations 2
smoothSolver:  Solving for Uy, Initial residual = 0.00300109, Final residual = 5.94161e-06, No Iterations 2
DICPCG:  Solving for p, Initial residual = 0.00816385, Final residual = 0.000404004, No Iterations 44
time step continuity errors : sum local = 3.92581e-10, global = -9.11831e-16, cumulative = 3.06939e-08
DICPCG:  Solving for p, Initial residual = 0.00158627, Final residual = 9.99839e-07, No Iterations 205
time step continuity errors : sum local = 9.67843e-13, global = 2.31892e-15, cumulative = 3.06939e-08
ExecutionTime = 3.73 s  ClockTime = 3 s

Time = 1.5

Courant Number mean: 0.00375321 max: 0.0633678
smoothSolver:  Solving for Ux, Initial residual = 0.00056145, Final residual = 2.96968e-06, No Iterations 2
smoothSolver:  Solving for Uy, Initial residual = 0.00292906, Final residual = 5.70785e-06, No Iterations 2
DICPCG:  Solving for p, Initial residual = 0.00795067, Final residual = 0.000388146, No Iterations 44
time step continuity errors : sum local = 3.73887e-10, global = -4.81925e-16, cumulative = 3.06939e-08
DICPCG:  Solving for p, Initial residual = 0.00152235, Final residual = 9.49389e-07, No Iterations 205
time step continuity errors : sum local = 9.11209e-13, global = 2.10604e-15, cumulative = 3.06939e-08
ExecutionTime = 3.84 s  ClockTime = 3 s

Time = 1.55

Courant Number mean: 0.00375269 max: 0.0627813
smoothSolver:  Solving for Ux, Initial residual = 0.000542475, Final residual = 2.83655e-06, No Iterations 2
smoothSolver:  Solving for Uy, Initial residual = 0.00286054, Final residual = 5.49094e-06, No Iterations 2
DICPCG:  Solving for p, Initial residual = 0.00797817, Final residual = 0.000379656, No Iterations 44
time step continuity errors : sum local = 3.62561e-10, global = -4.11438e-16, cumulative = 3.06939e-08
DICPCG:  Solving for p, Initial residual = 0.00150086, Final residual = 9.25656e-07, No Iterations 205
time step continuity errors : sum local = 8.8064e-13, global = 2.48298e-15, cumulative = 3.06939e-08
ExecutionTime = 3.95 s  ClockTime = 4 s

Time = 1.6

Courant Number mean: 0.00375217 max: 0.0622108
smoothSolver:  Solving for Ux, Initial residual = 0.000524661, Final residual = 2.71358e-06, No Iterations 2
smoothSolver:  Solving for Uy, Initial residual = 0.00279525, Final residual = 5.28605e-06, No Iterations 2
DICPCG:  Solving for p, Initial residual = 0.00776559, Final residual = 0.000372862, No Iterations 44
time step continuity errors : sum local = 3.52914e-10, global = -1.14929e-16, cumulative = 3.06939e-08
DICPCG:  Solving for p, Initial residual = 0.00147729, Final residual = 9.94565e-07, No Iterations 203
time step continuity errors : sum local = 9.37629e-13, global = 4.69209e-15, cumulative = 3.06939e-08
ExecutionTime = 4.05 s  ClockTime = 4 s

Time = 1.65

Courant Number mean: 0.00375167 max: 0.061656
smoothSolver:  Solving for Ux, Initial residual = 0.000507934, Final residual = 2.59959e-06, No Iterations 2
smoothSolver:  Solving for Uy, Initial residual = 0.00273297, Final residual = 5.09389e-06, No Iterations 2
DICPCG:  Solving for p, Initial residual = 0.00766664, Final residual = 0.00036281, No Iterations 44
time step continuity errors : sum local = 3.40308e-10, global = -1.53107e-16, cumulative = 3.06939e-08
DICPCG:  Solving for p, Initial residual = 0.00142049, Final residual = 9.68296e-07, No Iterations 203
time step continuity errors : sum local = 9.0468e-13, global = 3.82861e-15, cumulative = 3.06939e-08
ExecutionTime = 4.16 s  ClockTime = 4 s

Time = 1.7

Courant Number mean: 0.00375118 max: 0.0611162
smoothSolver:  Solving for Ux, Initial residual = 0.000492182, Final residual = 2.49379e-06, No Iterations 2
smoothSolver:  Solving for Uy, Initial residual = 0.00267349, Final residual = 4.9134e-06, No Iterations 2
DICPCG:  Solving for p, Initial residual = 0.00748185, Final residual = 0.000350072, No Iterations 44
time step continuity errors : sum local = 3.25493e-10, global = -1.20592e-15, cumulative = 3.06939e-08
DICPCG:  Solving for p, Initial residual = 0.00138723, Final residual = 9.72926e-07, No Iterations 202
time step continuity errors : sum local = 9.01279e-13, global = 5.67162e-15, cumulative = 3.06939e-08
ExecutionTime = 4.26 s  ClockTime = 4 s

Time = 1.75

Courant Number mean: 0.0037507 max: 0.060591
smoothSolver:  Solving for Ux, Initial residual = 0.000477307, Final residual = 2.39535e-06, No Iterations 2
smoothSolver:  Solving for Uy, Initial residual = 0.00261626, Final residual = 4.74292e-06, No Iterations 2
DICPCG:  Solving for p, Initial residual = 0.0074634, Final residual = 0.000351275, No Iterations 44
time step continuity errors : sum local = 3.23843e-10, global = 7.03499e-16, cumulative = 3.06939e-08
DICPCG:  Solving for p, Initial residual = 0.00136585, Final residual = 9.76935e-07, No Iterations 179
time step continuity errors : sum local = 8.97314e-13, global = 2.43313e-14, cumulative = 3.06939e-08
ExecutionTime = 4.36 s  ClockTime = 4 s

Time = 1.8

Courant Number mean: 0.00375023 max: 0.0600797
smoothSolver:  Solving for Ux, Initial residual = 0.000463278, Final residual = 2.30343e-06, No Iterations 2
smoothSolver:  Solving for Uy, Initial residual = 0.0025619, Final residual = 4.58199e-06, No Iterations 2
DICPCG:  Solving for p, Initial residual = 0.0072136, Final residual = 0.000334821, No Iterations 44
time step continuity errors : sum local = 3.06134e-10, global = 1.59194e-14, cumulative = 3.06939e-08
DICPCG:  Solving for p, Initial residual = 0.00133108, Final residual = 9.47477e-07, No Iterations 180
time step continuity errors : sum local = 8.63243e-13, global = 3.41615e-14, cumulative = 3.0694e-08
ExecutionTime = 4.46 s  ClockTime = 4 s

Time = 1.85

Courant Number mean: 0.00374976 max: 0.059582
smoothSolver:  Solving for Ux, Initial residual = 0.000449961, Final residual = 2.21762e-06, No Iterations 2
smoothSolver:  Solving for Uy, Initial residual = 0.00250946, Final residual = 4.43038e-06, No Iterations 2
DICPCG:  Solving for p, Initial residual = 0.00721964, Final residual = 0.000330435, No Iterations 44
time step continuity errors : sum local = 2.99588e-10, global = 1.28981e-14, cumulative = 3.0694e-08
DICPCG:  Solving for p, Initial residual = 0.00133258, Final residual = 9.72183e-07, No Iterations 179
time step continuity errors : sum local = 8.78015e-13, global = 2.78305e-14, cumulative = 3.0694e-08
ExecutionTime = 4.56 s  ClockTime = 4 s

Time = 1.9

Courant Number mean: 0.00374931 max: 0.0590972
smoothSolver:  Solving for Ux, Initial residual = 0.000437309, Final residual = 2.1372e-06, No Iterations 2
smoothSolver:  Solving for Uy, Initial residual = 0.00245902, Final residual = 4.28621e-06, No Iterations 2
DICPCG:  Solving for p, Initial residual = 0.00681383, Final residual = 0.000315297, No Iterations 44
time step continuity errors : sum local = 2.83433e-10, global = 7.1457e-15, cumulative = 3.0694e-08
DICPCG:  Solving for p, Initial residual = 0.00126435, Final residual = 9.58705e-07, No Iterations 177
time step continuity errors : sum local = 8.58675e-13, global = 1.14943e-14, cumulative = 3.0694e-08
ExecutionTime = 4.66 s  ClockTime = 4 s

Time = 1.95

Courant Number mean: 0.00374886 max: 0.0586248
smoothSolver:  Solving for Ux, Initial residual = 0.000425306, Final residual = 2.06182e-06, No Iterations 2
smoothSolver:  Solving for Uy, Initial residual = 0.00241041, Final residual = 4.15005e-06, No Iterations 2
DICPCG:  Solving for p, Initial residual = 0.00667454, Final residual = 0.000308264, No Iterations 44
time step continuity errors : sum local = 2.74849e-10, global = 3.21545e-16, cumulative = 3.0694e-08
DICPCG:  Solving for p, Initial residual = 0.00123726, Final residual = 9.64327e-07, No Iterations 175
time step continuity errors : sum local = 8.56736e-13, global = 2.33069e-15, cumulative = 3.0694e-08
ExecutionTime = 4.75 s  ClockTime = 4 s

Time = 2

Courant Number mean: 0.00374842 max: 0.0581645
smoothSolver:  Solving for Ux, Initial residual = 0.000413891, Final residual = 1.99087e-06, No Iterations 2
smoothSolver:  Solving for Uy, Initial residual = 0.00236359, Final residual = 4.02092e-06, No Iterations 2
DICPCG:  Solving for p, Initial residual = 0.00658574, Final residual = 0.000302514, No Iterations 44
time step continuity errors : sum local = 2.67566e-10, global = -8.42733e-16, cumulative = 3.0694e-08
DICPCG:  Solving for p, Initial residual = 0.00121564, Final residual = 9.96756e-07, No Iterations 174
time step continuity errors : sum local = 8.78518e-13, global = -9.43492e-15, cumulative = 3.0694e-08
ExecutionTime = 5.04 s  ClockTime = 5 s

Time = 2.05

Courant Number mean: 0.00374798 max: 0.0577157
smoothSolver:  Solving for Ux, Initial residual = 0.000403013, Final residual = 1.92401e-06, No Iterations 2
smoothSolver:  Solving for Uy, Initial residual = 0.00231846, Final residual = 3.89814e-06, No Iterations 2
DICPCG:  Solving for p, Initial residual = 0.0064878, Final residual = 0.000296436, No Iterations 44
time step continuity errors : sum local = 2.60115e-10, global = -3.90635e-15, cumulative = 3.0694e-08
DICPCG:  Solving for p, Initial residual = 0.00119459, Final residual = 9.88929e-07, No Iterations 173
time step continuity errors : sum local = 8.64718e-13, global = -2.01088e-14, cumulative = 3.0694e-08
ExecutionTime = 5.13 s  ClockTime = 5 s

Time = 2.1

Courant Number mean: 0.00374756 max: 0.0572781
smoothSolver:  Solving for Ux, Initial residual = 0.000392636, Final residual = 1.86085e-06, No Iterations 2
smoothSolver:  Solving for Uy, Initial residual = 0.0022749, Final residual = 3.78104e-06, No Iterations 2
DICPCG:  Solving for p, Initial residual = 0.00641422, Final residual = 0.000291862, No Iterations 44
time step continuity errors : sum local = 2.54099e-10, global = -4.27223e-15, cumulative = 3.0694e-08
DICPCG:  Solving for p, Initial residual = 0.00117977, Final residual = 9.56678e-07, No Iterations 173
time step continuity errors : sum local = 8.30045e-13, global = -2.25671e-14, cumulative = 3.0694e-08
ExecutionTime = 5.23 s  ClockTime = 5 s

Time = 2.15

Courant Number mean: 0.00374714 max: 0.0568512
smoothSolver:  Solving for Ux, Initial residual = 0.000382737, Final residual = 1.80112e-06, No Iterations 2
smoothSolver:  Solving for Uy, Initial residual = 0.00223275, Final residual = 3.66953e-06, No Iterations 2
DICPCG:  Solving for p, Initial residual = 0.00633671, Final residual = 0.000286829, No Iterations 44
time step continuity errors : sum local = 2.47778e-10, global = -4.64756e-15, cumulative = 3.0694e-08
DICPCG:  Solving for p, Initial residual = 0.00116669, Final residual = 9.87373e-07, No Iterations 173
time step continuity errors : sum local = 8.4999e-13, global = -3.15607e-14, cumulative = 3.06939e-08
ExecutionTime = 5.33 s  ClockTime = 5 s

Time = 2.2

Courant Number mean: 0.00374672 max: 0.0564345
smoothSolver:  Solving for Ux, Initial residual = 0.000373264, Final residual = 1.74446e-06, No Iterations 2
smoothSolver:  Solving for Uy, Initial residual = 0.00219212, Final residual = 3.56354e-06, No Iterations 2
DICPCG:  Solving for p, Initial residual = 0.00628299, Final residual = 0.000281607, No Iterations 44
time step continuity errors : sum local = 2.41391e-10, global = -9.94199e-15, cumulative = 3.06939e-08
DICPCG:  Solving for p, Initial residual = 0.00114838, Final residual = 9.88727e-07, No Iterations 173
time step continuity errors : sum local = 8.44657e-13, global = -2.82129e-14, cumulative = 3.06939e-08
ExecutionTime = 5.43 s  ClockTime = 5 s

Time = 2.25

Courant Number mean: 0.00374632 max: 0.0560278
smoothSolver:  Solving for Ux, Initial residual = 0.000364198, Final residual = 1.69073e-06, No Iterations 2
smoothSolver:  Solving for Uy, Initial residual = 0.00215274, Final residual = 3.46358e-06, No Iterations 2
DICPCG:  Solving for p, Initial residual = 0.006208, Final residual = 0.0002808, No Iterations 44
time step continuity errors : sum local = 2.3884e-10, global = -3.71624e-15, cumulative = 3.06939e-08
DICPCG:  Solving for p, Initial residual = 0.00113412, Final residual = 9.89797e-07, No Iterations 171
time step continuity errors : sum local = 8.3894e-13, global = -4.01826e-14, cumulative = 3.06938e-08
ExecutionTime = 5.52 s  ClockTime = 5 s

Time = 2.3

Courant Number mean: 0.00374592 max: 0.0556306
smoothSolver:  Solving for Ux, Initial residual = 0.000355504, Final residual = 1.63979e-06, No Iterations 2
smoothSolver:  Solving for Uy, Initial residual = 0.00211465, Final residual = 3.36813e-06, No Iterations 2
DICPCG:  Solving for p, Initial residual = 0.00603803, Final residual = 0.000272104, No Iterations 44
time step continuity errors : sum local = 2.29657e-10, global = -8.32087e-15, cumulative = 3.06938e-08
DICPCG:  Solving for p, Initial residual = 0.00110168, Final residual = 9.87542e-07, No Iterations 174
time step continuity errors : sum local = 8.30677e-13, global = -2.97558e-14, cumulative = 3.06938e-08
ExecutionTime = 5.62 s  ClockTime = 5 s

Time = 2.35

Courant Number mean: 0.00374552 max: 0.0552426
smoothSolver:  Solving for Ux, Initial residual = 0.000347157, Final residual = 1.59137e-06, No Iterations 2
smoothSolver:  Solving for Uy, Initial residual = 0.00207773, Final residual = 3.27687e-06, No Iterations 2
DICPCG:  Solving for p, Initial residual = 0.00598037, Final residual = 0.000269955, No Iterations 44
time step continuity errors : sum local = 2.26133e-10, global = -9.09703e-15, cumulative = 3.06938e-08
DICPCG:  Solving for p, Initial residual = 0.00109045, Final residual = 9.8708e-07, No Iterations 175
time step continuity errors : sum local = 8.24106e-13, global = -2.54623e-14, cumulative = 3.06938e-08
ExecutionTime = 5.71 s  ClockTime = 5 s

Time = 2.4

Courant Number mean: 0.00374513 max: 0.0548634
smoothSolver:  Solving for Ux, Initial residual = 0.000339152, Final residual = 1.54532e-06, No Iterations 2
smoothSolver:  Solving for Uy, Initial residual = 0.00204195, Final residual = 3.18959e-06, No Iterations 2
DICPCG:  Solving for p, Initial residual = 0.00595313, Final residual = 0.00026743, No Iterations 44
time step continuity errors : sum local = 2.22378e-10, global = -7.45743e-15, cumulative = 3.06938e-08
DICPCG:  Solving for p, Initial residual = 0.00108267, Final residual = 9.8952e-07, No Iterations 191
time step continuity errors : sum local = 8.20183e-13, global = -5.39681e-15, cumulative = 3.06938e-08
ExecutionTime = 5.81 s  ClockTime = 5 s

Time = 2.45

Courant Number mean: 0.00374475 max: 0.0544928
smoothSolver:  Solving for Ux, Initial residual = 0.000331468, Final residual = 1.50144e-06, No Iterations 2
smoothSolver:  Solving for Uy, Initial residual = 0.00200726, Final residual = 3.10621e-06, No Iterations 2
DICPCG:  Solving for p, Initial residual = 0.00596111, Final residual = 0.00026252, No Iterations 44
time step continuity errors : sum local = 2.1669e-10, global = 6.78683e-15, cumulative = 3.06938e-08
DICPCG:  Solving for p, Initial residual = 0.00107968, Final residual = 9.66095e-07, No Iterations 191
time step continuity errors : sum local = 7.9476e-13, global = -5.23517e-15, cumulative = 3.06938e-08
ExecutionTime = 5.92 s  ClockTime = 6 s

Time = 2.5

Courant Number mean: 0.00374437 max: 0.0541304
smoothSolver:  Solving for Ux, Initial residual = 0.000324075, Final residual = 1.45947e-06, No Iterations 2
smoothSolver:  Solving for Uy, Initial residual = 0.00197373, Final residual = 3.02623e-06, No Iterations 2
DICPCG:  Solving for p, Initial residual = 0.00570644, Final residual = 0.000256633, No Iterations 44
time step continuity errors : sum local = 2.10278e-10, global = -1.15725e-15, cumulative = 3.06938e-08
DICPCG:  Solving for p, Initial residual = 0.00103727, Final residual = 9.47355e-07, No Iterations 192
time step continuity errors : sum local = 7.73763e-13, global = -2.46037e-15, cumulative = 3.06938e-08
ExecutionTime = 6.02 s  ClockTime = 6 s

Time = 2.55

Courant Number mean: 0.003744 max: 0.053776
smoothSolver:  Solving for Ux, Initial residual = 0.000316964, Final residual = 1.41944e-06, No Iterations 2
smoothSolver:  Solving for Uy, Initial residual = 0.00194106, Final residual = 2.95013e-06, No Iterations 2
DICPCG:  Solving for p, Initial residual = 0.00568089, Final residual = 0.000255727, No Iterations 44
time step continuity errors : sum local = 2.08051e-10, global = 2.66073e-15, cumulative = 3.06938e-08
DICPCG:  Solving for p, Initial residual = 0.00103394, Final residual = 9.76844e-07, No Iterations 191
time step continuity errors : sum local = 7.92238e-13, global = 1.34681e-15, cumulative = 3.06938e-08
ExecutionTime = 6.12 s  ClockTime = 6 s

Time = 2.6

Courant Number mean: 0.00374363 max: 0.0534292
smoothSolver:  Solving for Ux, Initial residual = 0.000310118, Final residual = 1.38122e-06, No Iterations 2
smoothSolver:  Solving for Uy, Initial residual = 0.00190931, Final residual = 2.8775e-06, No Iterations 2
DICPCG:  Solving for p, Initial residual = 0.00566305, Final residual = 0.000251882, No Iterations 44
time step continuity errors : sum local = 2.03498e-10, global = 2.67943e-15, cumulative = 3.06938e-08
DICPCG:  Solving for p, Initial residual = 0.00103358, Final residual = 9.32921e-07, No Iterations 192
time step continuity errors : sum local = 7.51403e-13, global = 2.12751e-15, cumulative = 3.06938e-08
ExecutionTime = 6.22 s  ClockTime = 6 s

Time = 2.65

Courant Number mean: 0.00374327 max: 0.0530898
smoothSolver:  Solving for Ux, Initial residual = 0.000303531, Final residual = 9.97313e-06, No Iterations 1
smoothSolver:  Solving for Uy, Initial residual = 0.00187849, Final residual = 2.80822e-06, No Iterations 2
DICPCG:  Solving for p, Initial residual = 0.00722932, Final residual = 0.000359035, No Iterations 59
time step continuity errors : sum local = 2.87904e-10, global = -6.80825e-14, cumulative = 3.06937e-08
DICPCG:  Solving for p, Initial residual = 0.0044146, Final residual = 9.59435e-07, No Iterations 209
time step continuity errors : sum local = 7.66673e-13, global = -1.01185e-14, cumulative = 3.06937e-08
ExecutionTime = 6.34 s  ClockTime = 6 s

Time = 2.7

Courant Number mean: 0.00374292 max: 0.0527639
smoothSolver:  Solving for Ux, Initial residual = 0.000295509, Final residual = 9.77865e-06, No Iterations 1
smoothSolver:  Solving for Uy, Initial residual = 0.00183299, Final residual = 2.74339e-06, No Iterations 2
DICPCG:  Solving for p, Initial residual = 0.00705353, Final residual = 0.000339173, No Iterations 53
time step continuity errors : sum local = 2.69834e-10, global = -1.852e-13, cumulative = 3.06935e-08
DICPCG:  Solving for p, Initial residual = 0.00425874, Final residual = 9.26309e-07, No Iterations 208
time step continuity errors : sum local = 7.34637e-13, global = -1.04227e-14, cumulative = 3.06935e-08
ExecutionTime = 6.45 s  ClockTime = 6 s

Time = 2.75

Courant Number mean: 0.00374257 max: 0.0525655
smoothSolver:  Solving for Ux, Initial residual = 0.000289619, Final residual = 9.55776e-06, No Iterations 1
smoothSolver:  Solving for Uy, Initial residual = 0.0018052, Final residual = 2.68197e-06, No Iterations 2
DICPCG:  Solving for p, Initial residual = 0.00696317, Final residual = 0.000344174, No Iterations 53
time step continuity errors : sum local = 2.71978e-10, global = -1.50595e-13, cumulative = 3.06933e-08
DICPCG:  Solving for p, Initial residual = 0.00422492, Final residual = 9.70557e-07, No Iterations 207
time step continuity errors : sum local = 7.64647e-13, global = -9.98363e-15, cumulative = 3.06933e-08
ExecutionTime = 6.56 s  ClockTime = 6 s

Time = 2.8

Courant Number mean: 0.00374223 max: 0.0525275
smoothSolver:  Solving for Ux, Initial residual = 0.000283863, Final residual = 9.34335e-06, No Iterations 1
smoothSolver:  Solving for Uy, Initial residual = 0.00177773, Final residual = 2.62208e-06, No Iterations 2
DICPCG:  Solving for p, Initial residual = 0.00689617, Final residual = 0.000340739, No Iterations 53
time step continuity errors : sum local = 2.67472e-10, global = -1.48579e-13, cumulative = 3.06932e-08
DICPCG:  Solving for p, Initial residual = 0.00417704, Final residual = 9.62664e-07, No Iterations 207
time step continuity errors : sum local = 7.53347e-13, global = -9.8097e-15, cumulative = 3.06932e-08
ExecutionTime = 6.67 s  ClockTime = 6 s

Time = 2.85

Courant Number mean: 0.00374189 max: 0.0524876
smoothSolver:  Solving for Ux, Initial residual = 0.000278295, Final residual = 9.13532e-06, No Iterations 1
smoothSolver:  Solving for Uy, Initial residual = 0.00175109, Final residual = 2.56471e-06, No Iterations 2
DICPCG:  Solving for p, Initial residual = 0.00682682, Final residual = 0.000337493, No Iterations 53
time step continuity errors : sum local = 2.6317e-10, global = -1.4648e-13, cumulative = 3.0693e-08
DICPCG:  Solving for p, Initial residual = 0.00413446, Final residual = 9.42068e-07, No Iterations 207
time step continuity errors : sum local = 7.32414e-13, global = -9.74258e-15, cumulative = 3.0693e-08
ExecutionTime = 6.78 s  ClockTime = 6 s

Time = 2.9

Courant Number mean: 0.00374156 max: 0.0524458
smoothSolver:  Solving for Ux, Initial residual = 0.000272901, Final residual = 8.93397e-06, No Iterations 1
smoothSolver:  Solving for Uy, Initial residual = 0.00172506, Final residual = 2.50964e-06, No Iterations 2
DICPCG:  Solving for p, Initial residual = 0.0069602, Final residual = 0.000342363, No Iterations 53
time step continuity errors : sum local = 2.65145e-10, global = -1.4284e-13, cumulative = 3.06929e-08
DICPCG:  Solving for p, Initial residual = 0.00412171, Final residual = 9.2618e-07, No Iterations 207
time step continuity errors : sum local = 7.14916e-13, global = -9.3239e-15, cumulative = 3.06929e-08
ExecutionTime = 6.89 s  ClockTime = 7 s

Time = 2.95

Courant Number mean: 0.00374123 max: 0.0524022
smoothSolver:  Solving for Ux, Initial residual = 0.000267686, Final residual = 8.73993e-06, No Iterations 1
smoothSolver:  Solving for Uy, Initial residual = 0.00169966, Final residual = 2.45649e-06, No Iterations 2
DICPCG:  Solving for p, Initial residual = 0.00661157, Final residual = 0.000327857, No Iterations 53
time step continuity errors : sum local = 2.52176e-10, global = -1.43898e-13, cumulative = 3.06927e-08
DICPCG:  Solving for p, Initial residual = 0.00404771, Final residual = 9.31558e-07, No Iterations 207
time step continuity errors : sum local = 7.14417e-13, global = -9.3195e-15, cumulative = 3.06927e-08
ExecutionTime = 7 s  ClockTime = 7 s

Time = 3

Courant Number mean: 0.0037409 max: 0.0523569
smoothSolver:  Solving for Ux, Initial residual = 0.000262617, Final residual = 8.55203e-06, No Iterations 1
smoothSolver:  Solving for Uy, Initial residual = 0.00167481, Final residual = 2.40493e-06, No Iterations 2
DICPCG:  Solving for p, Initial residual = 0.00657162, Final residual = 0.000327356, No Iterations 53
time step continuity errors : sum local = 2.50162e-10, global = -1.39839e-13, cumulative = 3.06926e-08
DICPCG:  Solving for p, Initial residual = 0.00400916, Final residual = 9.03492e-07, No Iterations 207
time step continuity errors : sum local = 6.88379e-13, global = -9.24897e-15, cumulative = 3.06926e-08
ExecutionTime = 7.3 s  ClockTime = 7 s

Time = 3.05

Courant Number mean: 0.00374058 max: 0.0523098
smoothSolver:  Solving for Ux, Initial residual = 0.000257699, Final residual = 8.3704e-06, No Iterations 1
smoothSolver:  Solving for Uy, Initial residual = 0.00165052, Final residual = 2.35534e-06, No Iterations 2
DICPCG:  Solving for p, Initial residual = 0.00643254, Final residual = 0.000320904, No Iterations 53
time step continuity errors : sum local = 2.43658e-10, global = -1.37172e-13, cumulative = 3.06924e-08
DICPCG:  Solving for p, Initial residual = 0.00396345, Final residual = 8.95253e-07, No Iterations 207
time step continuity errors : sum local = 6.77776e-13, global = -9.06468e-15, cumulative = 3.06924e-08
ExecutionTime = 7.4 s  ClockTime = 7 s

Time = 3.1

Courant Number mean: 0.00374026 max: 0.0522612
smoothSolver:  Solving for Ux, Initial residual = 0.000252935, Final residual = 8.19462e-06, No Iterations 1
smoothSolver:  Solving for Uy, Initial residual = 0.00162688, Final residual = 2.30746e-06, No Iterations 2
DICPCG:  Solving for p, Initial residual = 0.00633639, Final residual = 0.000294552, No Iterations 55
time step continuity errors : sum local = 2.22245e-10, global = -1.62915e-13, cumulative = 3.06923e-08
DICPCG:  Solving for p, Initial residual = 0.00392176, Final residual = 9.03293e-07, No Iterations 207
time step continuity errors : sum local = 6.79605e-13, global = -9.32122e-15, cumulative = 3.06922e-08
ExecutionTime = 7.51 s  ClockTime = 7 s

Time = 3.15

Courant Number mean: 0.00373994 max: 0.052211
smoothSolver:  Solving for Ux, Initial residual = 0.000248328, Final residual = 8.02459e-06, No Iterations 1
smoothSolver:  Solving for Uy, Initial residual = 0.0016039, Final residual = 2.26115e-06, No Iterations 2
DICPCG:  Solving for p, Initial residual = 0.00631321, Final residual = 0.000312905, No Iterations 53
time step continuity errors : sum local = 2.34648e-10, global = -1.32071e-13, cumulative = 3.06921e-08
DICPCG:  Solving for p, Initial residual = 0.00388084, Final residual = 9.98361e-07, No Iterations 206
time step continuity errors : sum local = 7.46616e-13, global = -8.37941e-15, cumulative = 3.06921e-08
ExecutionTime = 7.62 s  ClockTime = 7 s

Time = 3.2

Courant Number mean: 0.00373963 max: 0.0521593
smoothSolver:  Solving for Ux, Initial residual = 0.000243851, Final residual = 7.85988e-06, No Iterations 1
smoothSolver:  Solving for Uy, Initial residual = 0.00158138, Final residual = 2.21623e-06, No Iterations 2
DICPCG:  Solving for p, Initial residual = 0.00624143, Final residual = 0.000311635, No Iterations 53
time step continuity errors : sum local = 2.32292e-10, global = -1.31135e-13, cumulative = 3.0692e-08
DICPCG:  Solving for p, Initial residual = 0.00384475, Final residual = 9.7189e-07, No Iterations 206
time step continuity errors : sum local = 7.22465e-13, global = -8.0243e-15, cumulative = 3.0692e-08
ExecutionTime = 7.73 s  ClockTime = 7 s

Time = 3.25

Courant Number mean: 0.00373932 max: 0.0521063
smoothSolver:  Solving for Ux, Initial residual = 0.000239517, Final residual = 7.7004e-06, No Iterations 1
smoothSolver:  Solving for Uy, Initial residual = 0.00155945, Final residual = 2.17295e-06, No Iterations 2
DICPCG:  Solving for p, Initial residual = 0.00624819, Final residual = 0.00031136, No Iterations 53
time step continuity errors : sum local = 2.30671e-10, global = -1.28565e-13, cumulative = 3.06918e-08
DICPCG:  Solving for p, Initial residual = 0.00381835, Final residual = 9.44625e-07, No Iterations 206
time step continuity errors : sum local = 6.97809e-13, global = -7.15194e-15, cumulative = 3.06918e-08
ExecutionTime = 7.84 s  ClockTime = 8 s

Time = 3.3

Courant Number mean: 0.00373902 max: 0.0520519
smoothSolver:  Solving for Ux, Initial residual = 0.000235316, Final residual = 7.54582e-06, No Iterations 1
smoothSolver:  Solving for Uy, Initial residual = 0.00153808, Final residual = 2.13134e-06, No Iterations 2
DICPCG:  Solving for p, Initial residual = 0.00607614, Final residual = 0.000281515, No Iterations 55
time step continuity errors : sum local = 2.0729e-10, global = -1.53105e-13, cumulative = 3.06917e-08
DICPCG:  Solving for p, Initial residual = 0.00376307, Final residual = 9.74694e-07, No Iterations 206
time step continuity errors : sum local = 7.15757e-13, global = -8.17289e-15, cumulative = 3.06917e-08
ExecutionTime = 7.95 s  ClockTime = 8 s

Time = 3.35

Courant Number mean: 0.00373872 max: 0.0519962
smoothSolver:  Solving for Ux, Initial residual = 0.000231235, Final residual = 7.39597e-06, No Iterations 1
smoothSolver:  Solving for Uy, Initial residual = 0.0015173, Final residual = 2.09136e-06, No Iterations 2
DICPCG:  Solving for p, Initial residual = 0.00606949, Final residual = 0.000302151, No Iterations 53
time step continuity errors : sum local = 2.21196e-10, global = -1.23634e-13, cumulative = 3.06915e-08
DICPCG:  Solving for p, Initial residual = 0.00372982, Final residual = 9.39409e-07, No Iterations 206
time step continuity errors : sum local = 6.85928e-13, global = -7.51239e-15, cumulative = 3.06915e-08
ExecutionTime = 8.06 s  ClockTime = 8 s

Time = 3.4

Courant Number mean: 0.00373842 max: 0.0519392
smoothSolver:  Solving for Ux, Initial residual = 0.000227265, Final residual = 7.25102e-06, No Iterations 1
smoothSolver:  Solving for Uy, Initial residual = 0.00149685, Final residual = 2.05255e-06, No Iterations 2
DICPCG:  Solving for p, Initial residual = 0.00606811, Final residual = 0.00030073, No Iterations 53
time step continuity errors : sum local = 2.18913e-10, global = -1.23597e-13, cumulative = 3.06914e-08
DICPCG:  Solving for p, Initial residual = 0.00369156, Final residual = 9.02933e-07, No Iterations 206
time step continuity errors : sum local = 6.55592e-13, global = -7.55397e-15, cumulative = 3.06914e-08
ExecutionTime = 8.17 s  ClockTime = 8 s

Time = 3.45

Courant Number mean: 0.00373813 max: 0.0518811
smoothSolver:  Solving for Ux, Initial residual = 0.000223405, Final residual = 7.11019e-06, No Iterations 1
smoothSolver:  Solving for Uy, Initial residual = 0.00147698, Final residual = 2.01496e-06, No Iterations 2
DICPCG:  Solving for p, Initial residual = 0.00600642, Final residual = 0.000295282, No Iterations 53
time step continuity errors : sum local = 2.13761e-10, global = -1.21587e-13, cumulative = 3.06913e-08
DICPCG:  Solving for p, Initial residual = 0.00365434, Final residual = 8.91069e-07, No Iterations 206
time step continuity errors : sum local = 6.43472e-13, global = -6.96773e-15, cumulative = 3.06913e-08
ExecutionTime = 8.28 s  ClockTime = 8 s

Time = 3.5

Courant Number mean: 0.00373784 max: 0.0518219
smoothSolver:  Solving for Ux, Initial residual = 0.000219657, Final residual = 6.97369e-06, No Iterations 1
smoothSolver:  Solving for Uy, Initial residual = 0.00145753, Final residual = 1.97912e-06, No Iterations 2
DICPCG:  Solving for p, Initial residual = 0.00593843, Final residual = 0.000291068, No Iterations 53
time step continuity errors : sum local = 2.0953e-10, global = -1.1791e-13, cumulative = 3.06912e-08
DICPCG:  Solving for p, Initial residual = 0.00363059, Final residual = 8.65532e-07, No Iterations 206
time step continuity errors : sum local = 6.21429e-13, global = -5.48095e-15, cumulative = 3.06912e-08
ExecutionTime = 8.39 s  ClockTime = 8 s

Time = 3.55

Courant Number mean: 0.00373755 max: 0.0517616
smoothSolver:  Solving for Ux, Initial residual = 0.00021602, Final residual = 6.84106e-06, No Iterations 1
smoothSolver:  Solving for Uy, Initial residual = 0.00143851, Final residual = 1.94412e-06, No Iterations 2
DICPCG:  Solving for p, Initial residual = 0.00597075, Final residual = 0.000288514, No Iterations 53
time step continuity errors : sum local = 2.06496e-10, global = -1.14602e-13, cumulative = 3.0691e-08
DICPCG:  Solving for p, Initial residual = 0.00360078, Final residual = 8.62019e-07, No Iterations 206
time step continuity errors : sum local = 6.15328e-13, global = -5.43019e-15, cumulative = 3.0691e-08
ExecutionTime = 8.49 s  ClockTime = 8 s

Time = 3.6

Courant Number mean: 0.00373727 max: 0.0517003
smoothSolver:  Solving for Ux, Initial residual = 0.000212484, Final residual = 6.71211e-06, No Iterations 1
smoothSolver:  Solving for Uy, Initial residual = 0.00141993, Final residual = 1.91e-06, No Iterations 2
DICPCG:  Solving for p, Initial residual = 0.00579389, Final residual = 0.000286826, No Iterations 53
time step continuity errors : sum local = 2.04142e-10, global = -1.14608e-13, cumulative = 3.06909e-08
DICPCG:  Solving for p, Initial residual = 0.00355115, Final residual = 9.95364e-07, No Iterations 205
time step continuity errors : sum local = 7.06671e-13, global = -5.1046e-15, cumulative = 3.06909e-08
ExecutionTime = 8.6 s  ClockTime = 8 s

Time = 3.65

Courant Number mean: 0.00373699 max: 0.0516571
smoothSolver:  Solving for Ux, Initial residual = 0.000209036, Final residual = 6.5869e-06, No Iterations 1
smoothSolver:  Solving for Uy, Initial residual = 0.00140178, Final residual = 1.87709e-06, No Iterations 2
DICPCG:  Solving for p, Initial residual = 0.00571112, Final residual = 0.000282686, No Iterations 53
time step continuity errors : sum local = 2.00107e-10, global = -1.13917e-13, cumulative = 3.06908e-08
DICPCG:  Solving for p, Initial residual = 0.0035113, Final residual = 9.74623e-07, No Iterations 205
time step continuity errors : sum local = 6.88214e-13, global = -4.7473e-15, cumulative = 3.06908e-08
ExecutionTime = 8.71 s  ClockTime = 8 s

Time = 3.7

Courant Number mean: 0.00373671 max: 0.0516205
smoothSolver:  Solving for Ux, Initial residual = 0.000205682, Final residual = 6.46529e-06, No Iterations 1
smoothSolver:  Solving for Uy, Initial residual = 0.00138409, Final residual = 1.84523e-06, No Iterations 2
DICPCG:  Solving for p, Initial residual = 0.00568551, Final residual = 0.000280117, No Iterations 53
time step continuity errors : sum local = 1.97223e-10, global = -1.11841e-13, cumulative = 3.06907e-08
DICPCG:  Solving for p, Initial residual = 0.00347778, Final residual = 9.60352e-07, No Iterations 205
time step continuity errors : sum local = 6.74496e-13, global = -4.17471e-15, cumulative = 3.06907e-08
ExecutionTime = 8.82 s  ClockTime = 8 s

Time = 3.75

Courant Number mean: 0.00373644 max: 0.0515829
smoothSolver:  Solving for Ux, Initial residual = 0.000202415, Final residual = 6.34709e-06, No Iterations 1
smoothSolver:  Solving for Uy, Initial residual = 0.00136686, Final residual = 1.81438e-06, No Iterations 2
DICPCG:  Solving for p, Initial residual = 0.00559188, Final residual = 0.000277955, No Iterations 53
time step continuity errors : sum local = 1.94667e-10, global = -1.1016e-13, cumulative = 3.06906e-08
DICPCG:  Solving for p, Initial residual = 0.00344136, Final residual = 9.44231e-07, No Iterations 205
time step continuity errors : sum local = 6.59727e-13, global = -4.1975e-15, cumulative = 3.06906e-08
ExecutionTime = 8.93 s  ClockTime = 9 s

Time = 3.8

Courant Number mean: 0.00373617 max: 0.0515443
smoothSolver:  Solving for Ux, Initial residual = 0.000199238, Final residual = 6.23234e-06, No Iterations 1
smoothSolver:  Solving for Uy, Initial residual = 0.00134998, Final residual = 1.78443e-06, No Iterations 2
DICPCG:  Solving for p, Initial residual = 0.00554576, Final residual = 0.000275402, No Iterations 53
time step continuity errors : sum local = 1.9189e-10, global = -1.08604e-13, cumulative = 3.06905e-08
DICPCG:  Solving for p, Initial residual = 0.00340542, Final residual = 9.40619e-07, No Iterations 205
time step continuity errors : sum local = 6.53878e-13, global = -4.0968e-15, cumulative = 3.06905e-08
ExecutionTime = 9.04 s  ClockTime = 9 s

Time = 3.85

Courant Number mean: 0.0037359 max: 0.0515047
smoothSolver:  Solving for Ux, Initial residual = 0.000196149, Final residual = 6.12065e-06, No Iterations 1
smoothSolver:  Solving for Uy, Initial residual = 0.00133352, Final residual = 1.75569e-06, No Iterations 2
DICPCG:  Solving for p, Initial residual = 0.0054857, Final residual = 0.000271313, No Iterations 53
time step continuity errors : sum local = 1.8809e-10, global = -1.06987e-13, cumulative = 3.06903e-08
DICPCG:  Solving for p, Initial residual = 0.00337049, Final residual = 9.21873e-07, No Iterations 205
time step continuity errors : sum local = 6.37641e-13, global = -3.94385e-15, cumulative = 3.06903e-08
ExecutionTime = 9.15 s  ClockTime = 9 s

Time = 3.9

Courant Number mean: 0.00373563 max: 0.0514642
smoothSolver:  Solving for Ux, Initial residual = 0.000193141, Final residual = 6.01201e-06, No Iterations 1
smoothSolver:  Solving for Uy, Initial residual = 0.00131745, Final residual = 1.72782e-06, No Iterations 2
DICPCG:  Solving for p, Initial residual = 0.00540115, Final residual = 0.000267689, No Iterations 53
time step continuity errors : sum local = 1.84638e-10, global = -1.04937e-13, cumulative = 3.06902e-08
DICPCG:  Solving for p, Initial residual = 0.00334771, Final residual = 9.16597e-07, No Iterations 205
time step continuity errors : sum local = 6.30736e-13, global = -3.2875e-15, cumulative = 3.06902e-08
ExecutionTime = 9.26 s  ClockTime = 9 s

Time = 3.95

Courant Number mean: 0.00373537 max: 0.0514228
smoothSolver:  Solving for Ux, Initial residual = 0.000190218, Final residual = 5.90622e-06, No Iterations 1
smoothSolver:  Solving for Uy, Initial residual = 0.00130169, Final residual = 1.70004e-06, No Iterations 2
DICPCG:  Solving for p, Initial residual = 0.00550167, Final residual = 0.000265073, No Iterations 53
time step continuity errors : sum local = 1.81895e-10, global = -1.02138e-13, cumulative = 3.06901e-08
DICPCG:  Solving for p, Initial residual = 0.00332109, Final residual = 8.98483e-07, No Iterations 205
time step continuity errors : sum local = 6.15084e-13, global = -3.15605e-15, cumulative = 3.06901e-08
ExecutionTime = 9.36 s  ClockTime = 9 s

Time = 4

Courant Number mean: 0.00373511 max: 0.0513806
smoothSolver:  Solving for Ux, Initial residual = 0.000187372, Final residual = 5.8033e-06, No Iterations 1
smoothSolver:  Solving for Uy, Initial residual = 0.00128627, Final residual = 1.67295e-06, No Iterations 2
DICPCG:  Solving for p, Initial residual = 0.0053639, Final residual = 0.000266348, No Iterations 53
time step continuity errors : sum local = 1.81829e-10, global = -1.01636e-13, cumulative = 3.069e-08
DICPCG:  Solving for p, Initial residual = 0.0032879, Final residual = 8.79472e-07, No Iterations 205
time step continuity errors : sum local = 5.9897e-13, global = -2.90503e-15, cumulative = 3.069e-08
ExecutionTime = 9.66 s  ClockTime = 9 s

Time = 4.05

Courant Number mean: 0.00373485 max: 0.0513375
smoothSolver:  Solving for Ux, Initial residual = 0.000184597, Final residual = 5.70325e-06, No Iterations 1
smoothSolver:  Solving for Uy, Initial residual = 0.00127125, Final residual = 1.64724e-06, No Iterations 2
DICPCG:  Solving for p, Initial residual = 0.00532336, Final residual = 0.000263242, No Iterations 53
time step continuity errors : sum local = 1.78783e-10, global = -1.01369e-13, cumulative = 3.06899e-08
DICPCG:  Solving for p, Initial residual = 0.00325969, Final residual = 9.91988e-07, No Iterations 204
time step continuity errors : sum local = 6.7213e-13, global = -6.85225e-16, cumulative = 3.06899e-08
ExecutionTime = 9.77 s  ClockTime = 9 s

Time = 4.1

Courant Number mean: 0.0037346 max: 0.0512936
smoothSolver:  Solving for Ux, Initial residual = 0.000181893, Final residual = 5.60599e-06, No Iterations 1
smoothSolver:  Solving for Uy, Initial residual = 0.0012565, Final residual = 1.62206e-06, No Iterations 2
DICPCG:  Solving for p, Initial residual = 0.00523642, Final residual = 0.000258568, No Iterations 53
time step continuity errors : sum local = 1.74738e-10, global = -9.89961e-14, cumulative = 3.06898e-08
DICPCG:  Solving for p, Initial residual = 0.00322818, Final residual = 9.80841e-07, No Iterations 204
time step continuity errors : sum local = 6.61407e-13, global = -6.97038e-16, cumulative = 3.06898e-08
ExecutionTime = 9.88 s  ClockTime = 10 s

Time = 4.15

Courant Number mean: 0.00373434 max: 0.051249
smoothSolver:  Solving for Ux, Initial residual = 0.000179251, Final residual = 5.5112e-06, No Iterations 1
smoothSolver:  Solving for Uy, Initial residual = 0.00124206, Final residual = 1.59743e-06, No Iterations 2
DICPCG:  Solving for p, Initial residual = 0.00518925, Final residual = 0.000253875, No Iterations 53
time step continuity errors : sum local = 1.70753e-10, global = -9.73824e-14, cumulative = 3.06897e-08
DICPCG:  Solving for p, Initial residual = 0.00319961, Final residual = 9.71634e-07, No Iterations 204
time step continuity errors : sum local = 6.52092e-13, global = -5.54733e-16, cumulative = 3.06897e-08
ExecutionTime = 9.99 s  ClockTime = 10 s

Time = 4.2

Courant Number mean: 0.00373409 max: 0.0512037
smoothSolver:  Solving for Ux, Initial residual = 0.000176675, Final residual = 5.41903e-06, No Iterations 1
smoothSolver:  Solving for Uy, Initial residual = 0.00122791, Final residual = 1.57358e-06, No Iterations 2
DICPCG:  Solving for p, Initial residual = 0.0051591, Final residual = 0.0002523, No Iterations 53
time step continuity errors : sum local = 1.6889e-10, global = -9.61744e-14, cumulative = 3.06896e-08
DICPCG:  Solving for p, Initial residual = 0.00317058, Final residual = 9.57528e-07, No Iterations 204
time step continuity errors : sum local = 6.39582e-13, global = -1.48556e-16, cumulative = 3.06896e-08
ExecutionTime = 10.1 s  ClockTime = 10 s

Time = 4.25

Courant Number mean: 0.00373385 max: 0.0511576
smoothSolver:  Solving for Ux, Initial residual = 0.000174164, Final residual = 5.32934e-06, No Iterations 1
smoothSolver:  Solving for Uy, Initial residual = 0.00121405, Final residual = 1.5504e-06, No Iterations 2
DICPCG:  Solving for p, Initial residual = 0.00512325, Final residual = 0.000253652, No Iterations 53
time step continuity errors : sum local = 1.68999e-10, global = -9.41351e-14, cumulative = 3.06895e-08
DICPCG:  Solving for p, Initial residual = 0.00313253, Final residual = 9.57329e-07, No Iterations 204
time step continuity errors : sum local = 6.36483e-13, global = 7.62484e-17, cumulative = 3.06895e-08
ExecutionTime = 10.2 s  ClockTime = 10 s

Time = 4.3

Courant Number mean: 0.0037336 max: 0.0511109
smoothSolver:  Solving for Ux, Initial residual = 0.000171714, Final residual = 5.24178e-06, No Iterations 1
smoothSolver:  Solving for Uy, Initial residual = 0.00120048, Final residual = 1.52791e-06, No Iterations 2
DICPCG:  Solving for p, Initial residual = 0.00516231, Final residual = 0.000252428, No Iterations 53
time step continuity errors : sum local = 1.67386e-10, global = -9.21618e-14, cumulative = 3.06894e-08
DICPCG:  Solving for p, Initial residual = 0.00310837, Final residual = 9.37239e-07, No Iterations 204
time step continuity errors : sum local = 6.20092e-13, global = 6.26759e-16, cumulative = 3.06894e-08
ExecutionTime = 10.32 s  ClockTime = 10 s

Time = 4.35

Courant Number mean: 0.00373336 max: 0.0510635
smoothSolver:  Solving for Ux, Initial residual = 0.000169319, Final residual = 5.15621e-06, No Iterations 1
smoothSolver:  Solving for Uy, Initial residual = 0.00118723, Final residual = 1.50586e-06, No Iterations 2
DICPCG:  Solving for p, Initial residual = 0.00502478, Final residual = 0.000244961, No Iterations 53
time step continuity errors : sum local = 1.61679e-10, global = -9.14099e-14, cumulative = 3.06893e-08
DICPCG:  Solving for p, Initial residual = 0.00307803, Final residual = 9.37996e-07, No Iterations 204
time step continuity errors : sum local = 6.17847e-13, global = 2.73546e-16, cumulative = 3.06893e-08
ExecutionTime = 10.44 s  ClockTime = 10 s

Time = 4.4

Courant Number mean: 0.00373312 max: 0.0510155
smoothSolver:  Solving for Ux, Initial residual = 0.000166984, Final residual = 5.07318e-06, No Iterations 1
smoothSolver:  Solving for Uy, Initial residual = 0.00117417, Final residual = 1.48436e-06, No Iterations 2
DICPCG:  Solving for p, Initial residual = 0.00493491, Final residual = 0.00024422, No Iterations 53
time step continuity errors : sum local = 1.60465e-10, global = -8.90269e-14, cumulative = 3.06893e-08
DICPCG:  Solving for p, Initial residual = 0.00304969, Final residual = 9.19635e-07, No Iterations 204
time step continuity errors : sum local = 6.02991e-13, global = 7.11899e-16, cumulative = 3.06893e-08
ExecutionTime = 10.54 s  ClockTime = 10 s

Time = 4.45

Courant Number mean: 0.00373288 max: 0.0509669
smoothSolver:  Solving for Ux, Initial residual = 0.000164702, Final residual = 4.9923e-06, No Iterations 1
smoothSolver:  Solving for Uy, Initial residual = 0.00116151, Final residual = 1.46378e-06, No Iterations 2
DICPCG:  Solving for p, Initial residual = 0.00494554, Final residual = 0.000242532, No Iterations 53
time step continuity errors : sum local = 1.58626e-10, global = -9.10221e-14, cumulative = 3.06892e-08
DICPCG:  Solving for p, Initial residual = 0.00302505, Final residual = 9.0858e-07, No Iterations 204
time step continuity errors : sum local = 5.92998e-13, global = 1.19521e-15, cumulative = 3.06892e-08
ExecutionTime = 10.65 s  ClockTime = 10 s

Time = 4.5

Courant Number mean: 0.00373265 max: 0.0509178
smoothSolver:  Solving for Ux, Initial residual = 0.000162471, Final residual = 4.91335e-06, No Iterations 1
smoothSolver:  Solving for Uy, Initial residual = 0.00114909, Final residual = 1.44378e-06, No Iterations 2
DICPCG:  Solving for p, Initial residual = 0.00494108, Final residual = 0.000242727, No Iterations 53
time step continuity errors : sum local = 1.58035e-10, global = -9.09847e-14, cumulative = 3.06891e-08
DICPCG:  Solving for p, Initial residual = 0.00300208, Final residual = 8.95511e-07, No Iterations 204
time step continuity errors : sum local = 5.81855e-13, global = 1.12118e-15, cumulative = 3.06891e-08
ExecutionTime = 10.76 s  ClockTime = 10 s

Time = 4.55

Courant Number mean: 0.00373242 max: 0.0508681
smoothSolver:  Solving for Ux, Initial residual = 0.000160299, Final residual = 4.83658e-06, No Iterations 1
smoothSolver:  Solving for Uy, Initial residual = 0.00113685, Final residual = 1.42404e-06, No Iterations 2
DICPCG:  Solving for p, Initial residual = 0.00481815, Final residual = 0.000235908, No Iterations 53
time step continuity errors : sum local = 1.52907e-10, global = -8.7296e-14, cumulative = 3.0689e-08
DICPCG:  Solving for p, Initial residual = 0.00297165, Final residual = 8.92358e-07, No Iterations 204
time step continuity errors : sum local = 5.77202e-13, global = 1.23742e-15, cumulative = 3.0689e-08
ExecutionTime = 10.86 s  ClockTime = 11 s

Time = 4.6

Courant Number mean: 0.00373219 max: 0.0508179
smoothSolver:  Solving for Ux, Initial residual = 0.00015817, Final residual = 4.7615e-06, No Iterations 1
smoothSolver:  Solving for Uy, Initial residual = 0.00112487, Final residual = 1.40482e-06, No Iterations 2
DICPCG:  Solving for p, Initial residual = 0.00475734, Final residual = 0.000235198, No Iterations 53
time step continuity errors : sum local = 1.51784e-10, global = -8.53735e-14, cumulative = 3.06889e-08
DICPCG:  Solving for p, Initial residual = 0.00294148, Final residual = 8.77005e-07, No Iterations 204
time step continuity errors : sum local = 5.64879e-13, global = 1.39731e-15, cumulative = 3.06889e-08
ExecutionTime = 10.98 s  ClockTime = 11 s

Time = 4.65

Courant Number mean: 0.00373196 max: 0.0507672
smoothSolver:  Solving for Ux, Initial residual = 0.000156088, Final residual = 4.68834e-06, No Iterations 1
smoothSolver:  Solving for Uy, Initial residual = 0.00111321, Final residual = 1.38613e-06, No Iterations 2
DICPCG:  Solving for p, Initial residual = 0.00472232, Final residual = 0.000234081, No Iterations 53
time step continuity errors : sum local = 1.50411e-10, global = -8.43187e-14, cumulative = 3.06888e-08
DICPCG:  Solving for p, Initial residual = 0.00291929, Final residual = 8.64871e-07, No Iterations 204
time step continuity errors : sum local = 5.54602e-13, global = 1.65545e-15, cumulative = 3.06888e-08
ExecutionTime = 11.08 s  ClockTime = 11 s

Time = 4.7

Courant Number mean: 0.00373173 max: 0.050716
smoothSolver:  Solving for Ux, Initial residual = 0.000154067, Final residual = 4.61693e-06, No Iterations 1
smoothSolver:  Solving for Uy, Initial residual = 0.00110154, Final residual = 1.36789e-06, No Iterations 2
DICPCG:  Solving for p, Initial residual = 0.00469946, Final residual = 0.000233323, No Iterations 53
time step continuity errors : sum local = 1.49263e-10, global = -8.40649e-14, cumulative = 3.06887e-08
DICPCG:  Solving for p, Initial residual = 0.0028935, Final residual = 9.94259e-07, No Iterations 203
time step continuity errors : sum local = 6.34772e-13, global = 4.15922e-15, cumulative = 3.06887e-08
ExecutionTime = 11.19 s  ClockTime = 11 s

Time = 4.75

Courant Number mean: 0.00373151 max: 0.0506644
smoothSolver:  Solving for Ux, Initial residual = 0.000152102, Final residual = 4.54721e-06, No Iterations 1
smoothSolver:  Solving for Uy, Initial residual = 0.00109001, Final residual = 1.35012e-06, No Iterations 2
DICPCG:  Solving for p, Initial residual = 0.00461127, Final residual = 0.000228137, No Iterations 53
time step continuity errors : sum local = 1.45324e-10, global = -8.27595e-14, cumulative = 3.06887e-08
DICPCG:  Solving for p, Initial residual = 0.00286424, Final residual = 9.67019e-07, No Iterations 203
time step continuity errors : sum local = 6.14842e-13, global = 4.33836e-15, cumulative = 3.06887e-08
ExecutionTime = 11.29 s  ClockTime = 11 s

Time = 4.8

Courant Number mean: 0.00373129 max: 0.0506123
smoothSolver:  Solving for Ux, Initial residual = 0.000150168, Final residual = 4.47886e-06, No Iterations 1
smoothSolver:  Solving for Uy, Initial residual = 0.00107895, Final residual = 1.33261e-06, No Iterations 2
DICPCG:  Solving for p, Initial residual = 0.00458219, Final residual = 0.000228937, No Iterations 53
time step continuity errors : sum local = 1.45234e-10, global = -8.09574e-14, cumulative = 3.06886e-08
DICPCG:  Solving for p, Initial residual = 0.00284309, Final residual = 9.51192e-07, No Iterations 203
time step continuity errors : sum local = 6.02279e-13, global = 4.22451e-15, cumulative = 3.06886e-08
ExecutionTime = 11.41 s  ClockTime = 11 s

Time = 4.85

Courant Number mean: 0.00373107 max: 0.0505598
smoothSolver:  Solving for Ux, Initial residual = 0.000148284, Final residual = 4.41248e-06, No Iterations 1
smoothSolver:  Solving for Uy, Initial residual = 0.00106803, Final residual = 1.31579e-06, No Iterations 2
DICPCG:  Solving for p, Initial residual = 0.00448996, Final residual = 0.000222887, No Iterations 53
time step continuity errors : sum local = 1.40824e-10, global = -7.95335e-14, cumulative = 3.06885e-08
DICPCG:  Solving for p, Initial residual = 0.00281249, Final residual = 9.38514e-07, No Iterations 203
time step continuity errors : sum local = 5.91888e-13, global = 4.54931e-15, cumulative = 3.06885e-08
ExecutionTime = 11.52 s  ClockTime = 11 s

Time = 4.9

Courant Number mean: 0.00373085 max: 0.0505069
smoothSolver:  Solving for Ux, Initial residual = 0.000146436, Final residual = 4.34734e-06, No Iterations 1
smoothSolver:  Solving for Uy, Initial residual = 0.00105736, Final residual = 1.29937e-06, No Iterations 2
DICPCG:  Solving for p, Initial residual = 0.0044888, Final residual = 0.000222221, No Iterations 53
time step continuity errors : sum local = 1.39851e-10, global = -7.88281e-14, cumulative = 3.06884e-08
DICPCG:  Solving for p, Initial residual = 0.00278978, Final residual = 9.20835e-07, No Iterations 203
time step continuity errors : sum local = 5.78482e-13, global = 4.68843e-15, cumulative = 3.06884e-08
ExecutionTime = 11.62 s  ClockTime = 11 s

Time = 4.95

Courant Number mean: 0.00373063 max: 0.0504537
smoothSolver:  Solving for Ux, Initial residual = 0.00014463, Final residual = 4.28374e-06, No Iterations 1
smoothSolver:  Solving for Uy, Initial residual = 0.0010469, Final residual = 1.28359e-06, No Iterations 2
DICPCG:  Solving for p, Initial residual = 0.00460939, Final residual = 0.000226321, No Iterations 53
time step continuity errors : sum local = 1.41901e-10, global = -7.70415e-14, cumulative = 3.06884e-08
DICPCG:  Solving for p, Initial residual = 0.00277956, Final residual = 9.07988e-07, No Iterations 203
time step continuity errors : sum local = 5.68385e-13, global = 4.82202e-15, cumulative = 3.06884e-08
ExecutionTime = 11.73 s  ClockTime = 11 s

Time = 5

Courant Number mean: 0.00373042 max: 0.0504001
smoothSolver:  Solving for Ux, Initial residual = 0.000142867, Final residual = 4.22195e-06, No Iterations 1
smoothSolver:  Solving for Uy, Initial residual = 0.00103655, Final residual = 1.26831e-06, No Iterations 2
DICPCG:  Solving for p, Initial residual = 0.00456122, Final residual = 0.000221978, No Iterations 53
time step continuity errors : sum local = 1.38641e-10, global = -7.68507e-14, cumulative = 3.06883e-08
DICPCG:  Solving for p, Initial residual = 0.00275932, Final residual = 8.89434e-07, No Iterations 203
time step continuity errors : sum local = 5.54435e-13, global = 4.66188e-15, cumulative = 3.06883e-08
ExecutionTime = 12.02 s  ClockTime = 12 s

Time = 5.05

Courant Number mean: 0.00373021 max: 0.0503462
smoothSolver:  Solving for Ux, Initial residual = 0.000141128, Final residual = 4.16068e-06, No Iterations 1
smoothSolver:  Solving for Uy, Initial residual = 0.0010266, Final residual = 1.25312e-06, No Iterations 2
DICPCG:  Solving for p, Initial residual = 0.00449941, Final residual = 0.0002209, No Iterations 53
time step continuity errors : sum local = 1.37393e-10, global = -7.73063e-14, cumulative = 3.06882e-08
DICPCG:  Solving for p, Initial residual = 0.00273303, Final residual = 8.83239e-07, No Iterations 203
time step continuity errors : sum local = 5.48311e-13, global = 4.63738e-15, cumulative = 3.06882e-08
ExecutionTime = 12.14 s  ClockTime = 12 s

Time = 5.1

Courant Number mean: 0.00373 max: 0.0502919
smoothSolver:  Solving for Ux, Initial residual = 0.000139431, Final residual = 4.10105e-06, No Iterations 1
smoothSolver:  Solving for Uy, Initial residual = 0.00101676, Final residual = 1.23846e-06, No Iterations 2
DICPCG:  Solving for p, Initial residual = 0.00432447, Final residual = 0.000214618, No Iterations 53
time step continuity errors : sum local = 1.32963e-10, global = -7.57867e-14, cumulative = 3.06882e-08
DICPCG:  Solving for p, Initial residual = 0.0026926, Final residual = 8.65308e-07, No Iterations 203
time step continuity errors : sum local = 5.35181e-13, global = 4.73961e-15, cumulative = 3.06882e-08
ExecutionTime = 12.25 s  ClockTime = 12 s

Time = 5.15

Courant Number mean: 0.00372979 max: 0.0502373
smoothSolver:  Solving for Ux, Initial residual = 0.000137773, Final residual = 4.04292e-06, No Iterations 1
smoothSolver:  Solving for Uy, Initial residual = 0.00100707, Final residual = 1.22415e-06, No Iterations 2
DICPCG:  Solving for p, Initial residual = 0.00433003, Final residual = 0.000212106, No Iterations 53
time step continuity errors : sum local = 1.30929e-10, global = -7.3847e-14, cumulative = 3.06881e-08
DICPCG:  Solving for p, Initial residual = 0.00266941, Final residual = 8.35412e-07, No Iterations 203
time step continuity errors : sum local = 5.14855e-13, global = 4.99294e-15, cumulative = 3.06881e-08
ExecutionTime = 12.35 s  ClockTime = 12 s

Time = 5.2

Courant Number mean: 0.00372959 max: 0.0501825
smoothSolver:  Solving for Ux, Initial residual = 0.000136151, Final residual = 3.98603e-06, No Iterations 1
smoothSolver:  Solving for Uy, Initial residual = 0.000997567, Final residual = 1.20998e-06, No Iterations 2
DICPCG:  Solving for p, Initial residual = 0.00435625, Final residual = 0.000214154, No Iterations 53
time step continuity errors : sum local = 1.31703e-10, global = -7.24465e-14, cumulative = 3.0688e-08
DICPCG:  Solving for p, Initial residual = 0.00265808, Final residual = 8.32641e-07, No Iterations 203
time step continuity errors : sum local = 5.11159e-13, global = 4.93635e-15, cumulative = 3.0688e-08
ExecutionTime = 12.46 s  ClockTime = 12 s

Time = 5.25

Courant Number mean: 0.00372938 max: 0.0501274
smoothSolver:  Solving for Ux, Initial residual = 0.000134571, Final residual = 3.93056e-06, No Iterations 1
smoothSolver:  Solving for Uy, Initial residual = 0.000988106, Final residual = 1.19608e-06, No Iterations 2
DICPCG:  Solving for p, Initial residual = 0.0043635, Final residual = 0.000212731, No Iterations 53
time step continuity errors : sum local = 1.30321e-10, global = -7.12003e-14, cumulative = 3.06879e-08
DICPCG:  Solving for p, Initial residual = 0.00263507, Final residual = 9.85782e-07, No Iterations 202
time step continuity errors : sum local = 6.02804e-13, global = 7.67312e-15, cumulative = 3.0688e-08
ExecutionTime = 12.57 s  ClockTime = 12 s

Time = 5.3

Courant Number mean: 0.00372918 max: 0.050072
smoothSolver:  Solving for Ux, Initial residual = 0.000133024, Final residual = 3.87635e-06, No Iterations 1
smoothSolver:  Solving for Uy, Initial residual = 0.000978842, Final residual = 1.18265e-06, No Iterations 2
DICPCG:  Solving for p, Initial residual = 0.0042191, Final residual = 0.000204236, No Iterations 53
time step continuity errors : sum local = 1.24647e-10, global = -7.10403e-14, cumulative = 3.06879e-08
DICPCG:  Solving for p, Initial residual = 0.00260009, Final residual = 9.67019e-07, No Iterations 202
time step continuity errors : sum local = 5.89216e-13, global = 7.56374e-15, cumulative = 3.06879e-08
ExecutionTime = 12.68 s  ClockTime = 12 s

Time = 5.35

Courant Number mean: 0.00372898 max: 0.0500163
smoothSolver:  Solving for Ux, Initial residual = 0.000131505, Final residual = 3.82299e-06, No Iterations 1
smoothSolver:  Solving for Uy, Initial residual = 0.000969848, Final residual = 1.16926e-06, No Iterations 2
DICPCG:  Solving for p, Initial residual = 0.00425607, Final residual = 0.000202842, No Iterations 53
time step continuity errors : sum local = 1.23341e-10, global = -6.97957e-14, cumulative = 3.06878e-08
DICPCG:  Solving for p, Initial residual = 0.00259248, Final residual = 9.50738e-07, No Iterations 202
time step continuity errors : sum local = 5.77099e-13, global = 7.56976e-15, cumulative = 3.06878e-08
ExecutionTime = 12.78 s  ClockTime = 12 s

Time = 5.4

Courant Number mean: 0.00372878 max: 0.0499605
smoothSolver:  Solving for Ux, Initial residual = 0.000130021, Final residual = 3.77083e-06, No Iterations 1
smoothSolver:  Solving for Uy, Initial residual = 0.000961002, Final residual = 1.15609e-06, No Iterations 2
DICPCG:  Solving for p, Initial residual = 0.00424873, Final residual = 0.000203763, No Iterations 53
time step continuity errors : sum local = 1.23446e-10, global = -6.91012e-14, cumulative = 3.06878e-08
DICPCG:  Solving for p, Initial residual = 0.00257731, Final residual = 9.38877e-07, No Iterations 202
time step continuity errors : sum local = 5.67872e-13, global = 7.05531e-15, cumulative = 3.06878e-08
ExecutionTime = 12.89 s  ClockTime = 13 s

Time = 5.45

Courant Number mean: 0.00372859 max: 0.049917
smoothSolver:  Solving for Ux, Initial residual = 0.000128564, Final residual = 3.71981e-06, No Iterations 1
smoothSolver:  Solving for Uy, Initial residual = 0.000952269, Final residual = 1.14331e-06, No Iterations 2
DICPCG:  Solving for p, Initial residual = 0.00411877, Final residual = 0.000201661, No Iterations 53
time step continuity errors : sum local = 1.21723e-10, global = -6.91768e-14, cumulative = 3.06877e-08
[...]
DICPCG:  Solving for p, Initial residual = 0.000267724, Final residual = 9.54252e-07, No Iterations 115
time step continuity errors : sum local = 3.44499e-13, global = 3.64736e-14, cumulative = 3.07059e-08
ExecutionTime = 77.27 s  ClockTime = 77 s

Time = 38.7

Courant Number mean: 0.00367994 max: 0.0352178
smoothSolver:  Solving for Ux, Initial residual = 2.08751e-05, Final residual = 2.29132e-07, No Iterations 1
smoothSolver:  Solving for Uy, Initial residual = 0.000201825, Final residual = 1.11311e-06, No Iterations 1
DICPCG:  Solving for p, Initial residual = 0.000406391, Final residual = 2.02936e-05, No Iterations 51
time step continuity errors : sum local = 7.32529e-12, global = 3.04912e-14, cumulative = 3.07059e-08
DICPCG:  Solving for p, Initial residual = 0.000267333, Final residual = 9.48541e-07, No Iterations 115
time step continuity errors : sum local = 3.42349e-13, global = 3.5533e-14, cumulative = 3.0706e-08
ExecutionTime = 77.34 s  ClockTime = 78 s

Time = 38.75

Courant Number mean: 0.0036799 max: 0.0352072
smoothSolver:  Solving for Ux, Initial residual = 2.0856e-05, Final residual = 2.28734e-07, No Iterations 1
smoothSolver:  Solving for Uy, Initial residual = 0.000201609, Final residual = 1.11103e-06, No Iterations 1
DICPCG:  Solving for p, Initial residual = 0.000405869, Final residual = 2.02621e-05, No Iterations 51
time step continuity errors : sum local = 7.31203e-12, global = 2.94191e-14, cumulative = 3.0706e-08
DICPCG:  Solving for p, Initial residual = 0.000266943, Final residual = 9.43344e-07, No Iterations 115
time step continuity errors : sum local = 3.40386e-13, global = 3.46608e-14, cumulative = 3.0706e-08
ExecutionTime = 77.43 s  ClockTime = 78 s

Time = 38.8

Courant Number mean: 0.00367986 max: 0.0351966
smoothSolver:  Solving for Ux, Initial residual = 2.0837e-05, Final residual = 2.28337e-07, No Iterations 1
smoothSolver:  Solving for Uy, Initial residual = 0.000201394, Final residual = 1.10895e-06, No Iterations 1
DICPCG:  Solving for p, Initial residual = 0.000405362, Final residual = 2.02314e-05, No Iterations 51
time step continuity errors : sum local = 7.29909e-12, global = 2.86487e-14, cumulative = 3.07061e-08
DICPCG:  Solving for p, Initial residual = 0.000266553, Final residual = 9.39278e-07, No Iterations 115
time step continuity errors : sum local = 3.38832e-13, global = 3.40263e-14, cumulative = 3.07061e-08
ExecutionTime = 77.5 s  ClockTime = 78 s

Time = 38.85

Courant Number mean: 0.00367982 max: 0.035186
smoothSolver:  Solving for Ux, Initial residual = 2.0818e-05, Final residual = 2.27941e-07, No Iterations 1
smoothSolver:  Solving for Uy, Initial residual = 0.00020118, Final residual = 1.10688e-06, No Iterations 1
DICPCG:  Solving for p, Initial residual = 0.00040492, Final residual = 2.02027e-05, No Iterations 51
time step continuity errors : sum local = 7.28687e-12, global = 2.82724e-14, cumulative = 3.07061e-08
DICPCG:  Solving for p, Initial residual = 0.00026616, Final residual = 9.3676e-07, No Iterations 115
time step continuity errors : sum local = 3.37837e-13, global = 3.37031e-14, cumulative = 3.07061e-08
ExecutionTime = 77.57 s  ClockTime = 78 s

Time = 38.9

Courant Number mean: 0.00367978 max: 0.0351754
smoothSolver:  Solving for Ux, Initial residual = 2.07991e-05, Final residual = 2.27546e-07, No Iterations 1
smoothSolver:  Solving for Uy, Initial residual = 0.000200967, Final residual = 1.10481e-06, No Iterations 1
DICPCG:  Solving for p, Initial residual = 0.000404489, Final residual = 2.01744e-05, No Iterations 51
time step continuity errors : sum local = 7.2748e-12, global = 2.82689e-14, cumulative = 3.07062e-08
DICPCG:  Solving for p, Initial residual = 0.000265769, Final residual = 9.99428e-07, No Iterations 114
time step continuity errors : sum local = 3.60346e-13, global = 3.40852e-14, cumulative = 3.07062e-08
ExecutionTime = 77.65 s  ClockTime = 78 s

Time = 38.95

Courant Number mean: 0.00367974 max: 0.0351649
smoothSolver:  Solving for Ux, Initial residual = 2.07802e-05, Final residual = 2.27152e-07, No Iterations 1
smoothSolver:  Solving for Uy, Initial residual = 0.000200755, Final residual = 1.10275e-06, No Iterations 1
DICPCG:  Solving for p, Initial residual = 0.000404092, Final residual = 2.01384e-05, No Iterations 51
time step continuity errors : sum local = 7.25995e-12, global = 2.87236e-14, cumulative = 3.07062e-08
DICPCG:  Solving for p, Initial residual = 0.000265373, Final residual = 9.9969e-07, No Iterations 114
time step continuity errors : sum local = 3.60349e-13, global = 3.43357e-14, cumulative = 3.07063e-08
ExecutionTime = 77.73 s  ClockTime = 78 s

Time = 39

Courant Number mean: 0.0036797 max: 0.0351544
smoothSolver:  Solving for Ux, Initial residual = 2.07614e-05, Final residual = 2.26759e-07, No Iterations 1
smoothSolver:  Solving for Uy, Initial residual = 0.000200542, Final residual = 1.1007e-06, No Iterations 1
DICPCG:  Solving for p, Initial residual = 0.000403647, Final residual = 2.01157e-05, No Iterations 51
time step continuity errors : sum local = 7.24992e-12, global = 2.91568e-14, cumulative = 3.07063e-08
DICPCG:  Solving for p, Initial residual = 0.000264992, Final residual = 9.37361e-07, No Iterations 115
time step continuity errors : sum local = 3.37796e-13, global = 3.42829e-14, cumulative = 3.07063e-08
ExecutionTime = 77.98 s  ClockTime = 78 s

Time = 39.05

Courant Number mean: 0.00367966 max: 0.0351438
smoothSolver:  Solving for Ux, Initial residual = 2.07427e-05, Final residual = 2.26367e-07, No Iterations 1
smoothSolver:  Solving for Uy, Initial residual = 0.00020033, Final residual = 1.09866e-06, No Iterations 1
DICPCG:  Solving for p, Initial residual = 0.00040333, Final residual = 2.00971e-05, No Iterations 51
time step continuity errors : sum local = 7.24139e-12, global = 2.94116e-14, cumulative = 3.07064e-08
DICPCG:  Solving for p, Initial residual = 0.00026462, Final residual = 9.98595e-07, No Iterations 114
time step continuity errors : sum local = 3.59772e-13, global = 3.49404e-14, cumulative = 3.07064e-08
ExecutionTime = 78.06 s  ClockTime = 78 s

Time = 39.1

Courant Number mean: 0.00367962 max: 0.0351333
smoothSolver:  Solving for Ux, Initial residual = 2.07239e-05, Final residual = 2.25977e-07, No Iterations 1
smoothSolver:  Solving for Uy, Initial residual = 0.000200119, Final residual = 1.09663e-06, No Iterations 1
DICPCG:  Solving for p, Initial residual = 0.00040309, Final residual = 2.00593e-05, No Iterations 51
time step continuity errors : sum local = 7.22596e-12, global = 2.98379e-14, cumulative = 3.07064e-08
DICPCG:  Solving for p, Initial residual = 0.000264219, Final residual = 9.99309e-07, No Iterations 114
time step continuity errors : sum local = 3.59938e-13, global = 3.51172e-14, cumulative = 3.07065e-08
ExecutionTime = 78.13 s  ClockTime = 78 s

Time = 39.15

Courant Number mean: 0.00367958 max: 0.0351229
smoothSolver:  Solving for Ux, Initial residual = 2.07053e-05, Final residual = 2.25587e-07, No Iterations 1
smoothSolver:  Solving for Uy, Initial residual = 0.000199908, Final residual = 1.0946e-06, No Iterations 1
DICPCG:  Solving for p, Initial residual = 0.000402889, Final residual = 2.00423e-05, No Iterations 51
time step continuity errors : sum local = 7.21801e-12, global = 2.98652e-14, cumulative = 3.07065e-08
DICPCG:  Solving for p, Initial residual = 0.000263844, Final residual = 9.9858e-07, No Iterations 114
time step continuity errors : sum local = 3.59585e-13, global = 3.51386e-14, cumulative = 3.07065e-08
ExecutionTime = 78.22 s  ClockTime = 78 s

Time = 39.2

Courant Number mean: 0.00367954 max: 0.0351124
smoothSolver:  Solving for Ux, Initial residual = 2.06867e-05, Final residual = 2.25199e-07, No Iterations 1
smoothSolver:  Solving for Uy, Initial residual = 0.000199698, Final residual = 1.09258e-06, No Iterations 1
DICPCG:  Solving for p, Initial residual = 0.000402909, Final residual = 2.00226e-05, No Iterations 51
time step continuity errors : sum local = 7.2091e-12, global = 2.97344e-14, cumulative = 3.07066e-08
DICPCG:  Solving for p, Initial residual = 0.000263466, Final residual = 9.96443e-07, No Iterations 114
time step continuity errors : sum local = 3.58726e-13, global = 3.49761e-14, cumulative = 3.07066e-08
ExecutionTime = 78.29 s  ClockTime = 78 s

Time = 39.25

Courant Number mean: 0.0036795 max: 0.035102
smoothSolver:  Solving for Ux, Initial residual = 2.06681e-05, Final residual = 2.24812e-07, No Iterations 1
smoothSolver:  Solving for Uy, Initial residual = 0.000199488, Final residual = 1.09057e-06, No Iterations 1
DICPCG:  Solving for p, Initial residual = 0.000403222, Final residual = 2.00088e-05, No Iterations 51
time step continuity errors : sum local = 7.20236e-12, global = 2.94095e-14, cumulative = 3.07066e-08
DICPCG:  Solving for p, Initial residual = 0.000263103, Final residual = 9.93286e-07, No Iterations 114
time step continuity errors : sum local = 3.57501e-13, global = 3.46437e-14, cumulative = 3.07067e-08
ExecutionTime = 78.36 s  ClockTime = 79 s

Time = 39.3

Courant Number mean: 0.00367946 max: 0.0350915
smoothSolver:  Solving for Ux, Initial residual = 2.06496e-05, Final residual = 2.24425e-07, No Iterations 1
smoothSolver:  Solving for Uy, Initial residual = 0.000199278, Final residual = 1.08857e-06, No Iterations 1
DICPCG:  Solving for p, Initial residual = 0.000404089, Final residual = 1.99985e-05, No Iterations 51
time step continuity errors : sum local = 7.19688e-12, global = 2.89317e-14, cumulative = 3.07067e-08
DICPCG:  Solving for p, Initial residual = 0.000262766, Final residual = 9.89546e-07, No Iterations 114
time step continuity errors : sum local = 3.56068e-13, global = 3.41521e-14, cumulative = 3.07067e-08
ExecutionTime = 78.43 s  ClockTime = 79 s

Time = 39.35

Courant Number mean: 0.00367942 max: 0.0350811
smoothSolver:  Solving for Ux, Initial residual = 2.06311e-05, Final residual = 2.2404e-07, No Iterations 1
smoothSolver:  Solving for Uy, Initial residual = 0.00019907, Final residual = 1.08658e-06, No Iterations 1
DICPCG:  Solving for p, Initial residual = 0.00040611, Final residual = 1.99915e-05, No Iterations 51
time step continuity errors : sum local = 7.19261e-12, global = 2.83118e-14, cumulative = 3.07068e-08
DICPCG:  Solving for p, Initial residual = 0.000262463, Final residual = 9.84375e-07, No Iterations 114
time step continuity errors : sum local = 3.54123e-13, global = 3.34593e-14, cumulative = 3.07068e-08
ExecutionTime = 78.51 s  ClockTime = 79 s

Time = 39.4

Courant Number mean: 0.00367938 max: 0.0350707
smoothSolver:  Solving for Ux, Initial residual = 2.06126e-05, Final residual = 2.23655e-07, No Iterations 1
smoothSolver:  Solving for Uy, Initial residual = 0.000198863, Final residual = 1.08461e-06, No Iterations 1
DICPCG:  Solving for p, Initial residual = 0.000410405, Final residual = 1.99802e-05, No Iterations 51
time step continuity errors : sum local = 7.18689e-12, global = 2.74609e-14, cumulative = 3.07068e-08
DICPCG:  Solving for p, Initial residual = 0.00026235, Final residual = 9.77101e-07, No Iterations 114
time step continuity errors : sum local = 3.51426e-13, global = 3.24093e-14, cumulative = 3.07068e-08
ExecutionTime = 78.58 s  ClockTime = 79 s

Time = 39.45

Courant Number mean: 0.00367934 max: 0.0350604
smoothSolver:  Solving for Ux, Initial residual = 2.05942e-05, Final residual = 2.2327e-07, No Iterations 1
smoothSolver:  Solving for Uy, Initial residual = 0.000198658, Final residual = 1.08266e-06, No Iterations 1
DICPCG:  Solving for p, Initial residual = 0.000413173, Final residual = 2.03709e-05, No Iterations 51
time step continuity errors : sum local = 7.32555e-12, global = 2.61376e-14, cumulative = 3.07069e-08
DICPCG:  Solving for p, Initial residual = 0.000263184, Final residual = 9.97327e-07, No Iterations 114
time step continuity errors : sum local = 3.58599e-13, global = 3.41356e-14, cumulative = 3.07069e-08
ExecutionTime = 78.65 s  ClockTime = 79 s

Time = 39.5

Courant Number mean: 0.0036793 max: 0.03505
smoothSolver:  Solving for Ux, Initial residual = 2.05758e-05, Final residual = 2.22895e-07, No Iterations 1
smoothSolver:  Solving for Uy, Initial residual = 0.000198443, Final residual = 1.08058e-06, No Iterations 1
DICPCG:  Solving for p, Initial residual = 0.000400448, Final residual = 1.99103e-05, No Iterations 51
time step continuity errors : sum local = 7.15794e-12, global = 3.04701e-14, cumulative = 3.07069e-08
DICPCG:  Solving for p, Initial residual = 0.000261379, Final residual = 9.97641e-07, No Iterations 114
time step continuity errors : sum local = 3.58618e-13, global = 3.59873e-14, cumulative = 3.0707e-08
ExecutionTime = 78.73 s  ClockTime = 79 s

Time = 39.55

Courant Number mean: 0.00367926 max: 0.0350397
smoothSolver:  Solving for Ux, Initial residual = 2.05575e-05, Final residual = 2.22517e-07, No Iterations 1
smoothSolver:  Solving for Uy, Initial residual = 0.000198235, Final residual = 1.07857e-06, No Iterations 1
DICPCG:  Solving for p, Initial residual = 0.000411957, Final residual = 2.01747e-05, No Iterations 51
time step continuity errors : sum local = 7.25102e-12, global = 3.23909e-14, cumulative = 3.0707e-08
DICPCG:  Solving for p, Initial residual = 0.000262349, Final residual = 9.48501e-07, No Iterations 115
time step continuity errors : sum local = 3.40856e-13, global = 3.82182e-14, cumulative = 3.0707e-08
ExecutionTime = 78.81 s  ClockTime = 79 s

Time = 39.6

Courant Number mean: 0.00367922 max: 0.0350293
smoothSolver:  Solving for Ux, Initial residual = 2.05393e-05, Final residual = 2.22143e-07, No Iterations 1
smoothSolver:  Solving for Uy, Initial residual = 0.000198024, Final residual = 1.07651e-06, No Iterations 1
DICPCG:  Solving for p, Initial residual = 0.000402305, Final residual = 1.98691e-05, No Iterations 51
time step continuity errors : sum local = 7.13919e-12, global = 3.55582e-14, cumulative = 3.07071e-08
DICPCG:  Solving for p, Initial residual = 0.000260792, Final residual = 9.50998e-07, No Iterations 115
time step continuity errors : sum local = 3.41661e-13, global = 3.94981e-14, cumulative = 3.07071e-08
ExecutionTime = 78.88 s  ClockTime = 79 s

Time = 39.65

Courant Number mean: 0.00367919 max: 0.035019
smoothSolver:  Solving for Ux, Initial residual = 2.0521e-05, Final residual = 2.21767e-07, No Iterations 1
smoothSolver:  Solving for Uy, Initial residual = 0.000197818, Final residual = 1.07451e-06, No Iterations 1
DICPCG:  Solving for p, Initial residual = 0.000395657, Final residual = 1.97158e-05, No Iterations 51
time step continuity errors : sum local = 7.08224e-12, global = 3.55398e-14, cumulative = 3.07072e-08
DICPCG:  Solving for p, Initial residual = 0.000260073, Final residual = 9.46269e-07, No Iterations 115
time step continuity errors : sum local = 3.39876e-13, global = 3.88061e-14, cumulative = 3.07072e-08
ExecutionTime = 78.96 s  ClockTime = 79 s

Time = 39.7

Courant Number mean: 0.00367915 max: 0.0350087
smoothSolver:  Solving for Ux, Initial residual = 2.05027e-05, Final residual = 2.21389e-07, No Iterations 1
smoothSolver:  Solving for Uy, Initial residual = 0.000197613, Final residual = 1.07256e-06, No Iterations 1
DICPCG:  Solving for p, Initial residual = 0.00039475, Final residual = 1.96855e-05, No Iterations 51
time step continuity errors : sum local = 7.06957e-12, global = 3.2963e-14, cumulative = 3.07072e-08
DICPCG:  Solving for p, Initial residual = 0.000259699, Final residual = 9.95053e-07, No Iterations 114
time step continuity errors : sum local = 3.57307e-13, global = 3.72165e-14, cumulative = 3.07073e-08
ExecutionTime = 79.03 s  ClockTime = 79 s

Time = 39.75

Courant Number mean: 0.00367911 max: 0.0349985
smoothSolver:  Solving for Ux, Initial residual = 2.04845e-05, Final residual = 2.21012e-07, No Iterations 1
smoothSolver:  Solving for Uy, Initial residual = 0.000197409, Final residual = 1.07061e-06, No Iterations 1
DICPCG:  Solving for p, Initial residual = 0.00039422, Final residual = 1.96426e-05, No Iterations 51
time step continuity errors : sum local = 7.0524e-12, global = 2.99812e-14, cumulative = 3.07073e-08
DICPCG:  Solving for p, Initial residual = 0.000259314, Final residual = 9.83312e-07, No Iterations 114
time step continuity errors : sum local = 3.53002e-13, global = 3.48018e-14, cumulative = 3.07073e-08
ExecutionTime = 79.1 s  ClockTime = 79 s

Time = 39.8

Courant Number mean: 0.00367907 max: 0.0349882
smoothSolver:  Solving for Ux, Initial residual = 2.04663e-05, Final residual = 2.20637e-07, No Iterations 1
smoothSolver:  Solving for Uy, Initial residual = 0.000197204, Final residual = 1.06867e-06, No Iterations 1
DICPCG:  Solving for p, Initial residual = 0.000393604, Final residual = 1.96133e-05, No Iterations 51
time step continuity errors : sum local = 7.04008e-12, global = 2.71477e-14, cumulative = 3.07074e-08
DICPCG:  Solving for p, Initial residual = 0.000258947, Final residual = 9.72776e-07, No Iterations 114
time step continuity errors : sum local = 3.49131e-13, global = 3.26078e-14, cumulative = 3.07074e-08
ExecutionTime = 79.17 s  ClockTime = 79 s

Time = 39.85

Courant Number mean: 0.00367903 max: 0.034978
smoothSolver:  Solving for Ux, Initial residual = 2.04482e-05, Final residual = 2.20263e-07, No Iterations 1
smoothSolver:  Solving for Uy, Initial residual = 0.000197, Final residual = 1.06673e-06, No Iterations 1
DICPCG:  Solving for p, Initial residual = 0.000393045, Final residual = 1.95814e-05, No Iterations 51
time step continuity errors : sum local = 7.02685e-12, global = 2.52491e-14, cumulative = 3.07074e-08
DICPCG:  Solving for p, Initial residual = 0.000258578, Final residual = 9.65233e-07, No Iterations 114
time step continuity errors : sum local = 3.46337e-13, global = 3.10982e-14, cumulative = 3.07074e-08
ExecutionTime = 79.25 s  ClockTime = 79 s

Time = 39.9

Courant Number mean: 0.00367899 max: 0.0349678
smoothSolver:  Solving for Ux, Initial residual = 2.04302e-05, Final residual = 2.1989e-07, No Iterations 1
smoothSolver:  Solving for Uy, Initial residual = 0.000196797, Final residual = 1.06479e-06, No Iterations 1
DICPCG:  Solving for p, Initial residual = 0.00039249, Final residual = 1.95508e-05, No Iterations 51
time step continuity errors : sum local = 7.01411e-12, global = 2.44689e-14, cumulative = 3.07075e-08
DICPCG:  Solving for p, Initial residual = 0.00025821, Final residual = 9.61488e-07, No Iterations 114
time step continuity errors : sum local = 3.44907e-13, global = 3.04754e-14, cumulative = 3.07075e-08
ExecutionTime = 79.32 s  ClockTime = 80 s

Time = 39.95

Courant Number mean: 0.00367895 max: 0.0349576
smoothSolver:  Solving for Ux, Initial residual = 2.04122e-05, Final residual = 2.19518e-07, No Iterations 1
smoothSolver:  Solving for Uy, Initial residual = 0.000196594, Final residual = 1.06286e-06, No Iterations 1
DICPCG:  Solving for p, Initial residual = 0.000391931, Final residual = 1.9521e-05, No Iterations 51
time step continuity errors : sum local = 7.00169e-12, global = 2.47329e-14, cumulative = 3.07075e-08
DICPCG:  Solving for p, Initial residual = 0.000257842, Final residual = 9.61299e-07, No Iterations 114
time step continuity errors : sum local = 3.44753e-13, global = 3.06818e-14, cumulative = 3.07076e-08
ExecutionTime = 79.4 s  ClockTime = 80 s

Time = 40

Courant Number mean: 0.00367891 max: 0.0349474
smoothSolver:  Solving for Ux, Initial residual = 2.03943e-05, Final residual = 2.19147e-07, No Iterations 1
smoothSolver:  Solving for Uy, Initial residual = 0.000196391, Final residual = 1.06093e-06, No Iterations 1
DICPCG:  Solving for p, Initial residual = 0.000391369, Final residual = 1.94921e-05, No Iterations 51
time step continuity errors : sum local = 6.98959e-12, global = 2.57374e-14, cumulative = 3.07076e-08
DICPCG:  Solving for p, Initial residual = 0.000257476, Final residual = 9.6344e-07, No Iterations 114
time step continuity errors : sum local = 3.45435e-13, global = 3.14759e-14, cumulative = 3.07076e-08
ExecutionTime = 79.65 s  ClockTime = 80 s

End

