/*---------------------------------------------------------------------------*\
  =========                 |
  \\      /  F ield         | OpenFOAM: The Open Source CFD Toolbox
   \\    /   O peration     | Website:  https://openfoam.org
    \\  /    A nd           | Version:  7
     \\/     M anipulation  |
\*---------------------------------------------------------------------------*/
Build  : 7-49b2b3b8b082
Exec   : icoFoam
Date   : May 14 2021
Time   : 01:12:27
Host   : "c435-011.stampede2.tacc.utexas.edu"
PID    : 218004
I/O    : uncollated
Case   : /work2/06782/kenmeyer/stampede2/final_serial/COE347/finalProject/spline1
nProcs : 1
sigFpe : Enabling floating point exception trapping (FOAM_SIGFPE).
fileModificationChecking : Monitoring run-time modified files using timeStampMaster (fileModificationSkew 10)
allowSystemOperations : Allowing user-supplied system call operations

// * * * * * * * * * * * * * * * * * * * * * * * * * * * * * * * * * * * * * //
Create time

Create mesh for time = 0

Reading transportProperties

Reading field p

Reading field U

Reading/calculating face flux field phi


Starting time loop

Time = 0.01

Courant Number mean: 0.001408 max: 0.0270737
smoothSolver:  Solving for Ux, Initial residual = 1, Final residual = 7.15638e-06, No Iterations 6
smoothSolver:  Solving for Uy, Initial residual = 0, Final residual = 0, No Iterations 0
DICPCG:  Solving for p, Initial residual = 1, Final residual = 0.0484573, No Iterations 367
time step continuity errors : sum local = 2.30699e-08, global = -5.73918e-11, cumulative = -5.73918e-11
DICPCG:  Solving for p, Initial residual = 0.164743, Final residual = 9.89973e-07, No Iterations 488
time step continuity errors : sum local = 3.56725e-12, global = -1.01317e-14, cumulative = -5.74019e-11
ExecutionTime = 2.28 s  ClockTime = 2 s

Time = 0.02

Courant Number mean: 0.00141603 max: 0.0365233
smoothSolver:  Solving for Ux, Initial residual = 0.234904, Final residual = 6.43177e-06, No Iterations 4
smoothSolver:  Solving for Uy, Initial residual = 0.282008, Final residual = 8.48597e-06, No Iterations 4
DICPCG:  Solving for p, Initial residual = 0.173537, Final residual = 0.00819065, No Iterations 365
time step continuity errors : sum local = 3.031e-08, global = 6.57544e-11, cumulative = 8.35249e-12
DICPCG:  Solving for p, Initial residual = 0.590571, Final residual = 9.60388e-07, No Iterations 500
time step continuity errors : sum local = 9.86679e-13, global = -6.98908e-18, cumulative = 8.35248e-12
ExecutionTime = 3.94 s  ClockTime = 4 s

Time = 0.03

Courant Number mean: 0.00141622 max: 0.0383952
smoothSolver:  Solving for Ux, Initial residual = 0.00645188, Final residual = 6.89776e-06, No Iterations 3
smoothSolver:  Solving for Uy, Initial residual = 0.00598207, Final residual = 3.15893e-06, No Iterations 3
DICPCG:  Solving for p, Initial residual = 0.459723, Final residual = 0.0228589, No Iterations 93
time step continuity errors : sum local = 8.6167e-09, global = -3.8712e-12, cumulative = 4.48129e-12
DICPCG:  Solving for p, Initial residual = 0.120594, Final residual = 9.46486e-07, No Iterations 467
time step continuity errors : sum local = 2.83266e-13, global = 6.57108e-17, cumulative = 4.48135e-12
ExecutionTime = 5.04 s  ClockTime = 5 s

Time = 0.04

Courant Number mean: 0.00141573 max: 0.0370676
smoothSolver:  Solving for Ux, Initial residual = 0.00780513, Final residual = 6.95575e-06, No Iterations 3
smoothSolver:  Solving for Uy, Initial residual = 0.00616059, Final residual = 1.82738e-06, No Iterations 3
DICPCG:  Solving for p, Initial residual = 0.156642, Final residual = 0.00744184, No Iterations 82
time step continuity errors : sum local = 1.99569e-09, global = 3.65627e-13, cumulative = 4.84698e-12
DICPCG:  Solving for p, Initial residual = 0.0327176, Final residual = 9.57633e-07, No Iterations 434
time step continuity errors : sum local = 2.37119e-13, global = 3.51132e-15, cumulative = 4.85049e-12
ExecutionTime = 6.07 s  ClockTime = 6 s

Time = 0.05

Courant Number mean: 0.00141534 max: 0.0357191
smoothSolver:  Solving for Ux, Initial residual = 0.00726564, Final residual = 7.22075e-06, No Iterations 3
smoothSolver:  Solving for Uy, Initial residual = 0.00478222, Final residual = 1.63908e-06, No Iterations 3
DICPCG:  Solving for p, Initial residual = 0.104167, Final residual = 0.00491694, No Iterations 81
time step continuity errors : sum local = 1.1209e-09, global = -2.53698e-15, cumulative = 4.84795e-12
DICPCG:  Solving for p, Initial residual = 0.0169658, Final residual = 9.75926e-07, No Iterations 419
time step continuity errors : sum local = 2.14511e-13, global = -1.26302e-15, cumulative = 4.84669e-12
ExecutionTime = 7.05 s  ClockTime = 7 s

Time = 0.06

Courant Number mean: 0.00141501 max: 0.0343423
smoothSolver:  Solving for Ux, Initial residual = 0.00692974, Final residual = 7.14631e-06, No Iterations 3
smoothSolver:  Solving for Uy, Initial residual = 0.00406046, Final residual = 9.4315e-06, No Iterations 2
DICPCG:  Solving for p, Initial residual = 0.0808152, Final residual = 0.00379935, No Iterations 81
time step continuity errors : sum local = 8.03629e-10, global = 2.69388e-14, cumulative = 4.87363e-12
DICPCG:  Solving for p, Initial residual = 0.0124748, Final residual = 9.29094e-07, No Iterations 416
time step continuity errors : sum local = 1.92238e-13, global = -7.87617e-16, cumulative = 4.87284e-12
ExecutionTime = 8.03 s  ClockTime = 8 s

Time = 0.07

Courant Number mean: 0.00141472 max: 0.0330029
smoothSolver:  Solving for Ux, Initial residual = 0.00502533, Final residual = 5.27685e-06, No Iterations 3
smoothSolver:  Solving for Uy, Initial residual = 0.00354931, Final residual = 8.40139e-06, No Iterations 2
DICPCG:  Solving for p, Initial residual = 0.0653898, Final residual = 0.00325053, No Iterations 80
time step continuity errors : sum local = 6.54349e-10, global = 1.61923e-14, cumulative = 4.88903e-12
DICPCG:  Solving for p, Initial residual = 0.00941045, Final residual = 9.54929e-07, No Iterations 413
time step continuity errors : sum local = 1.89737e-13, global = -8.78405e-16, cumulative = 4.88815e-12
ExecutionTime = 9.01 s  ClockTime = 9 s

Time = 0.08

Courant Number mean: 0.00141445 max: 0.0325495
smoothSolver:  Solving for Ux, Initial residual = 0.00383887, Final residual = 4.05225e-06, No Iterations 3
smoothSolver:  Solving for Uy, Initial residual = 0.00317168, Final residual = 7.56892e-06, No Iterations 2
DICPCG:  Solving for p, Initial residual = 0.0537745, Final residual = 0.00260134, No Iterations 80
time step continuity errors : sum local = 5.07346e-10, global = 1.28606e-14, cumulative = 4.90102e-12
DICPCG:  Solving for p, Initial residual = 0.0073228, Final residual = 9.69541e-07, No Iterations 411
time step continuity errors : sum local = 1.87732e-13, global = -7.36127e-16, cumulative = 4.90028e-12
ExecutionTime = 9.97 s  ClockTime = 10 s

Time = 0.09

Courant Number mean: 0.00141421 max: 0.0325766
smoothSolver:  Solving for Ux, Initial residual = 0.0030767, Final residual = 3.23803e-06, No Iterations 3
smoothSolver:  Solving for Uy, Initial residual = 0.00288153, Final residual = 6.8856e-06, No Iterations 2
DICPCG:  Solving for p, Initial residual = 0.0449676, Final residual = 0.00219214, No Iterations 75
time step continuity errors : sum local = 4.19222e-10, global = 6.28377e-15, cumulative = 4.90656e-12
DICPCG:  Solving for p, Initial residual = 0.00588693, Final residual = 9.01972e-07, No Iterations 410
time step continuity errors : sum local = 1.71945e-13, global = 1.92386e-16, cumulative = 4.90676e-12
ExecutionTime = 10.94 s  ClockTime = 11 s

Time = 0.1

Courant Number mean: 0.00141399 max: 0.0326047
smoothSolver:  Solving for Ux, Initial residual = 0.00255406, Final residual = 2.66647e-06, No Iterations 3
smoothSolver:  Solving for Uy, Initial residual = 0.00265164, Final residual = 6.314e-06, No Iterations 2
DICPCG:  Solving for p, Initial residual = 0.0380417, Final residual = 0.00177816, No Iterations 75
time step continuity errors : sum local = 3.35913e-10, global = 5.21881e-15, cumulative = 4.91197e-12
DICPCG:  Solving for p, Initial residual = 0.00489388, Final residual = 9.18598e-07, No Iterations 409
time step continuity errors : sum local = 1.7326e-13, global = 5.01015e-16, cumulative = 4.91248e-12
ExecutionTime = 11.9 s  ClockTime = 12 s

Time = 0.11

Courant Number mean: 0.00141379 max: 0.0326328
smoothSolver:  Solving for Ux, Initial residual = 0.0021775, Final residual = 2.24598e-06, No Iterations 3
smoothSolver:  Solving for Uy, Initial residual = 0.00246526, Final residual = 5.82698e-06, No Iterations 2
DICPCG:  Solving for p, Initial residual = 0.0328515, Final residual = 0.00159626, No Iterations 74
time step continuity errors : sum local = 2.99006e-10, global = 3.95391e-15, cumulative = 4.91643e-12
DICPCG:  Solving for p, Initial residual = 0.00423449, Final residual = 9.36098e-07, No Iterations 406
time step continuity errors : sum local = 1.75237e-13, global = 9.85287e-16, cumulative = 4.91741e-12
ExecutionTime = 12.85 s  ClockTime = 13 s

Time = 0.12

Courant Number mean: 0.00141359 max: 0.0326599
smoothSolver:  Solving for Ux, Initial residual = 0.00189504, Final residual = 1.92592e-06, No Iterations 3
smoothSolver:  Solving for Uy, Initial residual = 0.0023107, Final residual = 5.40747e-06, No Iterations 2
DICPCG:  Solving for p, Initial residual = 0.0284248, Final residual = 0.00137316, No Iterations 74
time step continuity errors : sum local = 2.55599e-10, global = 3.2264e-15, cumulative = 4.92064e-12
DICPCG:  Solving for p, Initial residual = 0.00366128, Final residual = 9.86713e-07, No Iterations 404
time step continuity errors : sum local = 1.83585e-13, global = 1.17603e-15, cumulative = 4.92182e-12
ExecutionTime = 13.79 s  ClockTime = 14 s

Time = 0.13

Courant Number mean: 0.00141341 max: 0.0326854
smoothSolver:  Solving for Ux, Initial residual = 0.00167572, Final residual = 1.67537e-06, No Iterations 3
smoothSolver:  Solving for Uy, Initial residual = 0.00217988, Final residual = 5.04528e-06, No Iterations 2
DICPCG:  Solving for p, Initial residual = 0.024984, Final residual = 0.00119702, No Iterations 74
time step continuity errors : sum local = 2.21692e-10, global = 2.95851e-15, cumulative = 4.92478e-12
DICPCG:  Solving for p, Initial residual = 0.00319603, Final residual = 9.54049e-07, No Iterations 403
time step continuity errors : sum local = 1.76656e-13, global = 9.62298e-16, cumulative = 4.92574e-12
ExecutionTime = 14.74 s  ClockTime = 15 s

Time = 0.14

Courant Number mean: 0.00141324 max: 0.0327088
smoothSolver:  Solving for Ux, Initial residual = 0.00150092, Final residual = 9.24229e-06, No Iterations 2
smoothSolver:  Solving for Uy, Initial residual = 0.00206754, Final residual = 4.72847e-06, No Iterations 2
DICPCG:  Solving for p, Initial residual = 0.02219, Final residual = 0.00108573, No Iterations 75
time step continuity errors : sum local = 2.00093e-10, global = 2.99295e-15, cumulative = 4.92873e-12
DICPCG:  Solving for p, Initial residual = 0.00319747, Final residual = 9.70929e-07, No Iterations 403
time step continuity errors : sum local = 1.78831e-13, global = 1.10158e-15, cumulative = 4.92983e-12
ExecutionTime = 15.69 s  ClockTime = 16 s

Time = 0.15

Courant Number mean: 0.00141307 max: 0.0327294
smoothSolver:  Solving for Ux, Initial residual = 0.00135648, Final residual = 8.25282e-06, No Iterations 2
smoothSolver:  Solving for Uy, Initial residual = 0.00196531, Final residual = 4.44779e-06, No Iterations 2
DICPCG:  Solving for p, Initial residual = 0.0199179, Final residual = 0.00098093, No Iterations 74
time step continuity errors : sum local = 1.79897e-10, global = 2.88318e-15, cumulative = 4.93272e-12
DICPCG:  Solving for p, Initial residual = 0.00286081, Final residual = 9.85009e-07, No Iterations 401
time step continuity errors : sum local = 1.80534e-13, global = 9.03299e-16, cumulative = 4.93362e-12
ExecutionTime = 16.62 s  ClockTime = 17 s

Time = 0.16

Courant Number mean: 0.00141291 max: 0.0327472
smoothSolver:  Solving for Ux, Initial residual = 0.00123897, Final residual = 7.42881e-06, No Iterations 2
smoothSolver:  Solving for Uy, Initial residual = 0.00188001, Final residual = 4.20074e-06, No Iterations 2
DICPCG:  Solving for p, Initial residual = 0.0180949, Final residual = 0.000884896, No Iterations 74
time step continuity errors : sum local = 1.61586e-10, global = 2.50755e-15, cumulative = 4.93613e-12
DICPCG:  Solving for p, Initial residual = 0.00260477, Final residual = 9.93974e-07, No Iterations 400
time step continuity errors : sum local = 1.81394e-13, global = 7.15316e-16, cumulative = 4.93684e-12
ExecutionTime = 17.55 s  ClockTime = 18 s

Time = 0.17

Courant Number mean: 0.00141276 max: 0.0327617
smoothSolver:  Solving for Ux, Initial residual = 0.00113991, Final residual = 6.73622e-06, No Iterations 2
smoothSolver:  Solving for Uy, Initial residual = 0.00180394, Final residual = 3.97945e-06, No Iterations 2
DICPCG:  Solving for p, Initial residual = 0.016715, Final residual = 0.000803433, No Iterations 74
time step continuity errors : sum local = 1.461e-10, global = 2.37502e-15, cumulative = 4.93922e-12
DICPCG:  Solving for p, Initial residual = 0.00240672, Final residual = 9.90529e-07, No Iterations 399
time step continuity errors : sum local = 1.79973e-13, global = 6.07716e-16, cumulative = 4.93982e-12
ExecutionTime = 18.48 s  ClockTime = 19 s

Time = 0.18

Courant Number mean: 0.00141261 max: 0.0327729
smoothSolver:  Solving for Ux, Initial residual = 0.00105564, Final residual = 6.14686e-06, No Iterations 2
smoothSolver:  Solving for Uy, Initial residual = 0.00173588, Final residual = 3.77952e-06, No Iterations 2
DICPCG:  Solving for p, Initial residual = 0.0154224, Final residual = 0.000731589, No Iterations 74
time step continuity errors : sum local = 1.3247e-10, global = 2.1694e-15, cumulative = 4.94199e-12
DICPCG:  Solving for p, Initial residual = 0.00223124, Final residual = 9.96209e-07, No Iterations 398
time step continuity errors : sum local = 1.80218e-13, global = 4.63845e-16, cumulative = 4.94246e-12
ExecutionTime = 19.42 s  ClockTime = 20 s

Time = 0.19

Courant Number mean: 0.00141247 max: 0.0327805
smoothSolver:  Solving for Ux, Initial residual = 0.000982871, Final residual = 5.64019e-06, No Iterations 2
smoothSolver:  Solving for Uy, Initial residual = 0.00167437, Final residual = 3.59852e-06, No Iterations 2
DICPCG:  Solving for p, Initial residual = 0.0143553, Final residual = 0.00067414, No Iterations 74
time step continuity errors : sum local = 1.21545e-10, global = 2.06047e-15, cumulative = 4.94452e-12
DICPCG:  Solving for p, Initial residual = 0.00208865, Final residual = 9.89771e-07, No Iterations 397
time step continuity errors : sum local = 1.7826e-13, global = 2.63417e-16, cumulative = 4.94478e-12
ExecutionTime = 20.35 s  ClockTime = 20 s

Time = 0.2

Courant Number mean: 0.00141234 max: 0.0327845
smoothSolver:  Solving for Ux, Initial residual = 0.000919398, Final residual = 5.20072e-06, No Iterations 2
smoothSolver:  Solving for Uy, Initial residual = 0.00161836, Final residual = 3.43299e-06, No Iterations 2
DICPCG:  Solving for p, Initial residual = 0.0133401, Final residual = 0.000614976, No Iterations 74
time step continuity errors : sum local = 1.10394e-10, global = 2.01981e-15, cumulative = 4.9468e-12
DICPCG:  Solving for p, Initial residual = 0.00194557, Final residual = 9.7533e-07, No Iterations 394
time step continuity errors : sum local = 1.74871e-13, global = -4.28732e-17, cumulative = 4.94676e-12
ExecutionTime = 21.27 s  ClockTime = 21 s

Time = 0.21

Courant Number mean: 0.00141221 max: 0.0327848
smoothSolver:  Solving for Ux, Initial residual = 0.000863595, Final residual = 4.81627e-06, No Iterations 2
smoothSolver:  Solving for Uy, Initial residual = 0.00156723, Final residual = 3.28192e-06, No Iterations 2
DICPCG:  Solving for p, Initial residual = 0.0125074, Final residual = 0.000569695, No Iterations 74
time step continuity errors : sum local = 1.01817e-10, global = 1.93586e-15, cumulative = 4.94869e-12
DICPCG:  Solving for p, Initial residual = 0.00182879, Final residual = 9.52124e-07, No Iterations 393
time step continuity errors : sum local = 1.69952e-13, global = -1.92032e-16, cumulative = 4.9485e-12
ExecutionTime = 22.2 s  ClockTime = 22 s

Time = 0.22

Courant Number mean: 0.00141208 max: 0.0327813
smoothSolver:  Solving for Ux, Initial residual = 0.000814312, Final residual = 4.47769e-06, No Iterations 2
smoothSolver:  Solving for Uy, Initial residual = 0.00152027, Final residual = 3.14242e-06, No Iterations 2
DICPCG:  Solving for p, Initial residual = 0.0118371, Final residual = 0.000585564, No Iterations 63
time step continuity errors : sum local = 1.04189e-10, global = 3.23624e-16, cumulative = 4.94883e-12
DICPCG:  Solving for p, Initial residual = 0.00175749, Final residual = 9.44735e-07, No Iterations 394
time step continuity errors : sum local = 1.67862e-13, global = -1.25813e-15, cumulative = 4.94757e-12
ExecutionTime = 23.1 s  ClockTime = 23 s

Time = 0.23

Courant Number mean: 0.00141195 max: 0.0327741
smoothSolver:  Solving for Ux, Initial residual = 0.000770315, Final residual = 4.17767e-06, No Iterations 2
smoothSolver:  Solving for Uy, Initial residual = 0.00147671, Final residual = 3.01316e-06, No Iterations 2
DICPCG:  Solving for p, Initial residual = 0.0111517, Final residual = 0.00055213, No Iterations 63
time step continuity errors : sum local = 9.7801e-11, global = -7.69913e-16, cumulative = 4.9468e-12
DICPCG:  Solving for p, Initial residual = 0.00167395, Final residual = 9.12822e-07, No Iterations 393
time step continuity errors : sum local = 1.61461e-13, global = -1.38124e-15, cumulative = 4.94542e-12
ExecutionTime = 24.01 s  ClockTime = 24 s

Time = 0.24

Courant Number mean: 0.00141183 max: 0.0327633
smoothSolver:  Solving for Ux, Initial residual = 0.000730944, Final residual = 3.91036e-06, No Iterations 2
smoothSolver:  Solving for Uy, Initial residual = 0.00143654, Final residual = 2.89392e-06, No Iterations 2
DICPCG:  Solving for p, Initial residual = 0.0105568, Final residual = 0.000516352, No Iterations 63
time step continuity errors : sum local = 9.10519e-11, global = -3.51223e-16, cumulative = 4.94507e-12
DICPCG:  Solving for p, Initial residual = 0.00159078, Final residual = 9.66348e-07, No Iterations 392
time step continuity errors : sum local = 1.70141e-13, global = -1.58148e-15, cumulative = 4.94348e-12
ExecutionTime = 24.91 s  ClockTime = 25 s

Time = 0.25

Courant Number mean: 0.00141172 max: 0.0327487
smoothSolver:  Solving for Ux, Initial residual = 0.000695433, Final residual = 3.67081e-06, No Iterations 2
smoothSolver:  Solving for Uy, Initial residual = 0.00139925, Final residual = 2.7842e-06, No Iterations 2
DICPCG:  Solving for p, Initial residual = 0.0100333, Final residual = 0.000487925, No Iterations 63
time step continuity errors : sum local = 8.56465e-11, global = -3.06909e-16, cumulative = 4.94318e-12
DICPCG:  Solving for p, Initial residual = 0.00151875, Final residual = 9.95171e-07, No Iterations 390
time step continuity errors : sum local = 1.74408e-13, global = -2.06188e-15, cumulative = 4.94112e-12
ExecutionTime = 25.81 s  ClockTime = 26 s

Time = 0.26

Courant Number mean: 0.0014116 max: 0.0327307
smoothSolver:  Solving for Ux, Initial residual = 0.00066323, Final residual = 3.45528e-06, No Iterations 2
smoothSolver:  Solving for Uy, Initial residual = 0.00136439, Final residual = 2.68193e-06, No Iterations 2
DICPCG:  Solving for p, Initial residual = 0.00955184, Final residual = 0.00045904, No Iterations 63
time step continuity errors : sum local = 8.02072e-11, global = -3.24251e-16, cumulative = 4.94079e-12
DICPCG:  Solving for p, Initial residual = 0.00145576, Final residual = 9.77521e-07, No Iterations 389
time step continuity errors : sum local = 1.70519e-13, global = -2.19207e-15, cumulative = 4.9386e-12
ExecutionTime = 26.7 s  ClockTime = 27 s

Time = 0.27

Courant Number mean: 0.00141149 max: 0.0327091
smoothSolver:  Solving for Ux, Initial residual = 0.000633862, Final residual = 3.26066e-06, No Iterations 2
smoothSolver:  Solving for Uy, Initial residual = 0.00133178, Final residual = 2.58691e-06, No Iterations 2
DICPCG:  Solving for p, Initial residual = 0.00916828, Final residual = 0.000454621, No Iterations 62
time step continuity errors : sum local = 7.90605e-11, global = -3.14358e-16, cumulative = 4.93828e-12
DICPCG:  Solving for p, Initial residual = 0.00140511, Final residual = 9.52398e-07, No Iterations 389
time step continuity errors : sum local = 1.65335e-13, global = -2.07552e-15, cumulative = 4.93621e-12
ExecutionTime = 27.59 s  ClockTime = 28 s

Time = 0.28

Courant Number mean: 0.00141138 max: 0.0326841
smoothSolver:  Solving for Ux, Initial residual = 0.000606937, Final residual = 3.08412e-06, No Iterations 2
smoothSolver:  Solving for Uy, Initial residual = 0.00130113, Final residual = 2.4987e-06, No Iterations 2
DICPCG:  Solving for p, Initial residual = 0.00872866, Final residual = 0.000427677, No Iterations 62
time step continuity errors : sum local = 7.40227e-11, global = -2.98301e-16, cumulative = 4.93591e-12
DICPCG:  Solving for p, Initial residual = 0.00134631, Final residual = 9.61592e-07, No Iterations 388
time step continuity errors : sum local = 1.66146e-13, global = -2.15989e-15, cumulative = 4.93375e-12
ExecutionTime = 28.48 s  ClockTime = 29 s

Time = 0.29

Courant Number mean: 0.00141127 max: 0.0326559
smoothSolver:  Solving for Ux, Initial residual = 0.000582197, Final residual = 2.92336e-06, No Iterations 2
smoothSolver:  Solving for Uy, Initial residual = 0.00127233, Final residual = 2.4161e-06, No Iterations 2
DICPCG:  Solving for p, Initial residual = 0.0083997, Final residual = 0.000411838, No Iterations 62
time step continuity errors : sum local = 7.09516e-11, global = -3.15281e-16, cumulative = 4.93344e-12
DICPCG:  Solving for p, Initial residual = 0.00131041, Final residual = 9.90498e-07, No Iterations 386
time step continuity errors : sum local = 1.7035e-13, global = -2.33432e-15, cumulative = 4.9311e-12
ExecutionTime = 29.37 s  ClockTime = 30 s

Time = 0.3

Courant Number mean: 0.00141117 max: 0.0326244
smoothSolver:  Solving for Ux, Initial residual = 0.000559382, Final residual = 2.77641e-06, No Iterations 2
smoothSolver:  Solving for Uy, Initial residual = 0.00124518, Final residual = 2.33867e-06, No Iterations 2
DICPCG:  Solving for p, Initial residual = 0.0080523, Final residual = 0.000395451, No Iterations 62
time step continuity errors : sum local = 6.78074e-11, global = -3.56145e-16, cumulative = 4.93074e-12
DICPCG:  Solving for p, Initial residual = 0.00125682, Final residual = 9.67165e-07, No Iterations 386
time step continuity errors : sum local = 1.65527e-13, global = -2.21483e-15, cumulative = 4.92853e-12
ExecutionTime = 30.26 s  ClockTime = 30 s

Time = 0.31

Courant Number mean: 0.00141107 max: 0.03259
smoothSolver:  Solving for Ux, Initial residual = 0.000538281, Final residual = 2.64154e-06, No Iterations 2
smoothSolver:  Solving for Uy, Initial residual = 0.00121957, Final residual = 2.26606e-06, No Iterations 2
DICPCG:  Solving for p, Initial residual = 0.0077217, Final residual = 0.000373869, No Iterations 62
time step continuity errors : sum local = 6.3801e-11, global = -2.87625e-16, cumulative = 4.92824e-12
DICPCG:  Solving for p, Initial residual = 0.00121062, Final residual = 9.93154e-07, No Iterations 357
time step continuity errors : sum local = 1.69171e-13, global = -8.02772e-17, cumulative = 4.92816e-12
ExecutionTime = 31.11 s  ClockTime = 31 s

Time = 0.32

Courant Number mean: 0.00141097 max: 0.0325527
smoothSolver:  Solving for Ux, Initial residual = 0.00051887, Final residual = 2.51751e-06, No Iterations 2
smoothSolver:  Solving for Uy, Initial residual = 0.00119532, Final residual = 2.19773e-06, No Iterations 2
DICPCG:  Solving for p, Initial residual = 0.00739377, Final residual = 0.000356557, No Iterations 62
time step continuity errors : sum local = 6.05678e-11, global = 1.50633e-16, cumulative = 4.92831e-12
DICPCG:  Solving for p, Initial residual = 0.001165, Final residual = 9.64186e-07, No Iterations 354
time step continuity errors : sum local = 1.635e-13, global = -1.22078e-15, cumulative = 4.92709e-12
ExecutionTime = 31.93 s  ClockTime = 32 s

Time = 0.33

Courant Number mean: 0.00141087 max: 0.0325127
smoothSolver:  Solving for Ux, Initial residual = 0.000500935, Final residual = 2.40315e-06, No Iterations 2
smoothSolver:  Solving for Uy, Initial residual = 0.00117225, Final residual = 2.13328e-06, No Iterations 2
DICPCG:  Solving for p, Initial residual = 0.00717304, Final residual = 0.000345908, No Iterations 62
time step continuity errors : sum local = 5.84935e-11, global = -2.38645e-16, cumulative = 4.92685e-12
DICPCG:  Solving for p, Initial residual = 0.00113365, Final residual = 9.58666e-07, No Iterations 352
time step continuity errors : sum local = 1.61818e-13, global = -1.68885e-15, cumulative = 4.92516e-12
ExecutionTime = 32.76 s  ClockTime = 33 s

Time = 0.34

Courant Number mean: 0.00141077 max: 0.03247
smoothSolver:  Solving for Ux, Initial residual = 0.00048427, Final residual = 2.29727e-06, No Iterations 2
smoothSolver:  Solving for Uy, Initial residual = 0.00115041, Final residual = 2.07225e-06, No Iterations 2
DICPCG:  Solving for p, Initial residual = 0.00690407, Final residual = 0.00032872, No Iterations 62
time step continuity errors : sum local = 5.53382e-11, global = -2.25644e-16, cumulative = 4.92494e-12
DICPCG:  Solving for p, Initial residual = 0.00109385, Final residual = 9.62363e-07, No Iterations 348
time step continuity errors : sum local = 1.61727e-13, global = -1.6051e-15, cumulative = 4.92333e-12
ExecutionTime = 33.58 s  ClockTime = 34 s

Time = 0.35

Courant Number mean: 0.00141068 max: 0.0324248
smoothSolver:  Solving for Ux, Initial residual = 0.00046873, Final residual = 2.19908e-06, No Iterations 2
smoothSolver:  Solving for Uy, Initial residual = 0.00112956, Final residual = 2.01456e-06, No Iterations 2
DICPCG:  Solving for p, Initial residual = 0.00673574, Final residual = 0.000318815, No Iterations 62
time step continuity errors : sum local = 5.34367e-11, global = -3.60418e-16, cumulative = 4.92297e-12
DICPCG:  Solving for p, Initial residual = 0.00107115, Final residual = 9.94891e-07, No Iterations 347
time step continuity errors : sum local = 1.66464e-13, global = -1.58741e-15, cumulative = 4.92139e-12
ExecutionTime = 34.39 s  ClockTime = 35 s

Time = 0.36

Courant Number mean: 0.00141058 max: 0.0323773
smoothSolver:  Solving for Ux, Initial residual = 0.000454313, Final residual = 2.10784e-06, No Iterations 2
smoothSolver:  Solving for Uy, Initial residual = 0.00110964, Final residual = 1.95993e-06, No Iterations 2
DICPCG:  Solving for p, Initial residual = 0.00650845, Final residual = 0.000306713, No Iterations 62
time step continuity errors : sum local = 5.11854e-11, global = -3.29418e-16, cumulative = 4.92106e-12
DICPCG:  Solving for p, Initial residual = 0.00103549, Final residual = 9.96488e-07, No Iterations 344
time step continuity errors : sum local = 1.66004e-13, global = -1.20277e-15, cumulative = 4.91985e-12
ExecutionTime = 35.21 s  ClockTime = 35 s

Time = 0.37

Courant Number mean: 0.00141049 max: 0.0323275
smoothSolver:  Solving for Ux, Initial residual = 0.000440886, Final residual = 2.02286e-06, No Iterations 2
smoothSolver:  Solving for Uy, Initial residual = 0.00109068, Final residual = 1.90812e-06, No Iterations 2
DICPCG:  Solving for p, Initial residual = 0.00626242, Final residual = 0.000313049, No Iterations 61
time step continuity errors : sum local = 5.20202e-11, global = -5.49093e-16, cumulative = 4.9193e-12
DICPCG:  Solving for p, Initial residual = 0.00101028, Final residual = 9.83934e-07, No Iterations 345
time step continuity errors : sum local = 1.63228e-13, global = -1.53413e-15, cumulative = 4.91777e-12
ExecutionTime = 36.03 s  ClockTime = 36 s

Time = 0.38

Courant Number mean: 0.0014104 max: 0.0322756
smoothSolver:  Solving for Ux, Initial residual = 0.000428276, Final residual = 1.94349e-06, No Iterations 2
smoothSolver:  Solving for Uy, Initial residual = 0.00107254, Final residual = 1.85886e-06, No Iterations 2
DICPCG:  Solving for p, Initial residual = 0.00610257, Final residual = 0.000302975, No Iterations 61
time step continuity errors : sum local = 5.0142e-11, global = -3.08602e-16, cumulative = 4.91746e-12
DICPCG:  Solving for p, Initial residual = 0.000987821, Final residual = 9.99499e-07, No Iterations 344
time step continuity errors : sum local = 1.65149e-13, global = -1.42288e-15, cumulative = 4.91604e-12
ExecutionTime = 36.83 s  ClockTime = 37 s

Time = 0.39

Courant Number mean: 0.00141031 max: 0.0322218
smoothSolver:  Solving for Ux, Initial residual = 0.000416395, Final residual = 1.86931e-06, No Iterations 2
smoothSolver:  Solving for Uy, Initial residual = 0.00105518, Final residual = 1.81204e-06, No Iterations 2
DICPCG:  Solving for p, Initial residual = 0.00595582, Final residual = 0.000294907, No Iterations 61
time step continuity errors : sum local = 4.861e-11, global = -4.68674e-16, cumulative = 4.91557e-12
DICPCG:  Solving for p, Initial residual = 0.000968357, Final residual = 9.69555e-07, No Iterations 343
time step continuity errors : sum local = 1.59544e-13, global = -1.11734e-15, cumulative = 4.91445e-12
ExecutionTime = 37.64 s  ClockTime = 38 s

Time = 0.4

Courant Number mean: 0.00141023 max: 0.0321661
smoothSolver:  Solving for Ux, Initial residual = 0.000405197, Final residual = 1.79996e-06, No Iterations 2
smoothSolver:  Solving for Uy, Initial residual = 0.00103851, Final residual = 1.76734e-06, No Iterations 2
DICPCG:  Solving for p, Initial residual = 0.0058411, Final residual = 0.000287676, No Iterations 61
time step continuity errors : sum local = 4.72261e-11, global = -4.69041e-16, cumulative = 4.91398e-12
DICPCG:  Solving for p, Initial residual = 0.000948684, Final residual = 9.90606e-07, No Iterations 343
time step continuity errors : sum local = 1.62352e-13, global = -1.11976e-15, cumulative = 4.91286e-12
ExecutionTime = 38.44 s  ClockTime = 39 s

Time = 0.41

Courant Number mean: 0.00141014 max: 0.0321087
smoothSolver:  Solving for Ux, Initial residual = 0.000394612, Final residual = 1.73482e-06, No Iterations 2
smoothSolver:  Solving for Uy, Initial residual = 0.00102257, Final residual = 1.72473e-06, No Iterations 2
DICPCG:  Solving for p, Initial residual = 0.00565225, Final residual = 0.000274765, No Iterations 61
time step continuity errors : sum local = 4.49258e-11, global = -4.2023e-16, cumulative = 4.91244e-12
DICPCG:  Solving for p, Initial residual = 0.000918924, Final residual = 9.67456e-07, No Iterations 340
time step continuity errors : sum local = 1.57921e-13, global = -4.04837e-16, cumulative = 4.91204e-12
ExecutionTime = 39.25 s  ClockTime = 39 s

Time = 0.42

Courant Number mean: 0.00141006 max: 0.0320497
smoothSolver:  Solving for Ux, Initial residual = 0.00038459, Final residual = 1.67364e-06, No Iterations 2
smoothSolver:  Solving for Uy, Initial residual = 0.00100721, Final residual = 1.68411e-06, No Iterations 2
DICPCG:  Solving for p, Initial residual = 0.00546818, Final residual = 0.000272877, No Iterations 60
time step continuity errors : sum local = 4.44418e-11, global = -5.84317e-16, cumulative = 4.91145e-12
DICPCG:  Solving for p, Initial residual = 0.000897746, Final residual = 9.81613e-07, No Iterations 341
time step continuity errors : sum local = 1.59616e-13, global = -8.19605e-16, cumulative = 4.91064e-12
ExecutionTime = 40.05 s  ClockTime = 40 s

Time = 0.43

Courant Number mean: 0.00140997 max: 0.0319891
smoothSolver:  Solving for Ux, Initial residual = 0.000375089, Final residual = 1.61606e-06, No Iterations 2
smoothSolver:  Solving for Uy, Initial residual = 0.000992462, Final residual = 1.6454e-06, No Iterations 2
DICPCG:  Solving for p, Initial residual = 0.00536579, Final residual = 0.000266581, No Iterations 60
time step continuity errors : sum local = 4.3249e-11, global = -4.51319e-16, cumulative = 4.91018e-12
DICPCG:  Solving for p, Initial residual = 0.00088693, Final residual = 9.9471e-07, No Iterations 341
time step continuity errors : sum local = 1.61116e-13, global = -8.66329e-16, cumulative = 4.90932e-12
ExecutionTime = 40.86 s  ClockTime = 41 s

Time = 0.44

Courant Number mean: 0.00140989 max: 0.0319272
smoothSolver:  Solving for Ux, Initial residual = 0.000366068, Final residual = 1.56182e-06, No Iterations 2
smoothSolver:  Solving for Uy, Initial residual = 0.000978269, Final residual = 1.6084e-06, No Iterations 2
DICPCG:  Solving for p, Initial residual = 0.00520897, Final residual = 0.000259343, No Iterations 60
time step continuity errors : sum local = 4.19137e-11, global = -4.44738e-16, cumulative = 4.90887e-12
DICPCG:  Solving for p, Initial residual = 0.000864758, Final residual = 9.51309e-07, No Iterations 340
time step continuity errors : sum local = 1.53501e-13, global = -5.35987e-16, cumulative = 4.90834e-12
ExecutionTime = 41.65 s  ClockTime = 42 s

Time = 0.45

Courant Number mean: 0.00140981 max: 0.031864
smoothSolver:  Solving for Ux, Initial residual = 0.000357489, Final residual = 1.51055e-06, No Iterations 2
smoothSolver:  Solving for Uy, Initial residual = 0.000964614, Final residual = 1.57312e-06, No Iterations 2
DICPCG:  Solving for p, Initial residual = 0.00507263, Final residual = 0.00024927, No Iterations 60
time step continuity errors : sum local = 4.01342e-11, global = -4.75978e-16, cumulative = 4.90786e-12
DICPCG:  Solving for p, Initial residual = 0.00084077, Final residual = 9.66129e-07, No Iterations 339
time step continuity errors : sum local = 1.55312e-13, global = -4.63826e-16, cumulative = 4.9074e-12
ExecutionTime = 42.45 s  ClockTime = 43 s

Time = 0.46

Courant Number mean: 0.00140973 max: 0.0317995
smoothSolver:  Solving for Ux, Initial residual = 0.000349326, Final residual = 1.46211e-06, No Iterations 2
smoothSolver:  Solving for Uy, Initial residual = 0.000951439, Final residual = 1.53911e-06, No Iterations 2
DICPCG:  Solving for p, Initial residual = 0.00494449, Final residual = 0.000244093, No Iterations 60
time step continuity errors : sum local = 3.91549e-11, global = -4.96354e-16, cumulative = 4.9069e-12
DICPCG:  Solving for p, Initial residual = 0.000822459, Final residual = 9.8355e-07, No Iterations 338
time step continuity errors : sum local = 1.57522e-13, global = -4.48199e-16, cumulative = 4.90645e-12
ExecutionTime = 43.26 s  ClockTime = 43 s

Time = 0.47

Courant Number mean: 0.00140965 max: 0.031734
smoothSolver:  Solving for Ux, Initial residual = 0.000341545, Final residual = 1.41627e-06, No Iterations 2
smoothSolver:  Solving for Uy, Initial residual = 0.000938728, Final residual = 1.50648e-06, No Iterations 2
DICPCG:  Solving for p, Initial residual = 0.00483548, Final residual = 0.00023745, No Iterations 60
time step continuity errors : sum local = 3.79476e-11, global = -5.08056e-16, cumulative = 4.90594e-12
DICPCG:  Solving for p, Initial residual = 0.000803121, Final residual = 9.7494e-07, No Iterations 338
time step continuity errors : sum local = 1.55563e-13, global = -3.27288e-16, cumulative = 4.90562e-12
ExecutionTime = 44.05 s  ClockTime = 44 s

Time = 0.48

Courant Number mean: 0.00140957 max: 0.0316674
smoothSolver:  Solving for Ux, Initial residual = 0.00033412, Final residual = 1.37287e-06, No Iterations 2
smoothSolver:  Solving for Uy, Initial residual = 0.000926453, Final residual = 1.47512e-06, No Iterations 2
DICPCG:  Solving for p, Initial residual = 0.00472584, Final residual = 0.000234026, No Iterations 60
time step continuity errors : sum local = 3.72612e-11, global = -3.82628e-16, cumulative = 4.90523e-12
DICPCG:  Solving for p, Initial residual = 0.000789421, Final residual = 9.44473e-07, No Iterations 338
time step continuity errors : sum local = 1.50138e-13, global = -1.41574e-16, cumulative = 4.90509e-12
ExecutionTime = 44.87 s  ClockTime = 45 s

Time = 0.49

Courant Number mean: 0.0014095 max: 0.0315999
smoothSolver:  Solving for Ux, Initial residual = 0.000327038, Final residual = 1.3317e-06, No Iterations 2
smoothSolver:  Solving for Uy, Initial residual = 0.000914647, Final residual = 1.44494e-06, No Iterations 2
DICPCG:  Solving for p, Initial residual = 0.00459947, Final residual = 0.00022444, No Iterations 60
time step continuity errors : sum local = 3.5604e-11, global = -3.21304e-16, cumulative = 4.90477e-12
DICPCG:  Solving for p, Initial residual = 0.000768952, Final residual = 9.25982e-07, No Iterations 338
time step continuity errors : sum local = 1.46666e-13, global = -6.30357e-17, cumulative = 4.90471e-12
ExecutionTime = 45.67 s  ClockTime = 46 s

Time = 0.5

Courant Number mean: 0.00140942 max: 0.0315315
smoothSolver:  Solving for Ux, Initial residual = 0.000320268, Final residual = 1.29263e-06, No Iterations 2
smoothSolver:  Solving for Uy, Initial residual = 0.000903191, Final residual = 1.41591e-06, No Iterations 2
DICPCG:  Solving for p, Initial residual = 0.0045118, Final residual = 0.000219521, No Iterations 60
time step continuity errors : sum local = 3.46989e-11, global = -3.08497e-16, cumulative = 4.9044e-12
DICPCG:  Solving for p, Initial residual = 0.000754861, Final residual = 9.90393e-07, No Iterations 337
time step continuity errors : sum local = 1.5631e-13, global = -7.68857e-17, cumulative = 4.90432e-12
ExecutionTime = 46.46 s  ClockTime = 47 s

Time = 0.51

Courant Number mean: 0.00140935 max: 0.0314624
smoothSolver:  Solving for Ux, Initial residual = 0.000313786, Final residual = 1.2555e-06, No Iterations 2
smoothSolver:  Solving for Uy, Initial residual = 0.000892095, Final residual = 1.38793e-06, No Iterations 2
DICPCG:  Solving for p, Initial residual = 0.00440997, Final residual = 0.000213666, No Iterations 60
time step continuity errors : sum local = 3.36533e-11, global = -3.36371e-16, cumulative = 4.90399e-12
DICPCG:  Solving for p, Initial residual = 0.000739463, Final residual = 9.6897e-07, No Iterations 337
time step continuity errors : sum local = 1.52384e-13, global = 4.04836e-17, cumulative = 4.90403e-12
ExecutionTime = 47.24 s  ClockTime = 47 s

Time = 0.52

Courant Number mean: 0.00140927 max: 0.0313925
smoothSolver:  Solving for Ux, Initial residual = 0.000307572, Final residual = 9.93068e-06, No Iterations 1
smoothSolver:  Solving for Uy, Initial residual = 0.000881397, Final residual = 1.361e-06, No Iterations 2
DICPCG:  Solving for p, Initial residual = 0.00556518, Final residual = 0.000276261, No Iterations 98
time step continuity errors : sum local = 4.33498e-11, global = 2.02743e-15, cumulative = 4.90605e-12
DICPCG:  Solving for p, Initial residual = 0.00364353, Final residual = 9.78962e-07, No Iterations 397
time step continuity errors : sum local = 1.53365e-13, global = -5.16408e-16, cumulative = 4.90554e-12
ExecutionTime = 48.2 s  ClockTime = 48 s

Time = 0.53

Courant Number mean: 0.0014092 max: 0.0313233
smoothSolver:  Solving for Ux, Initial residual = 0.000299788, Final residual = 9.71154e-06, No Iterations 1
smoothSolver:  Solving for Uy, Initial residual = 0.000863275, Final residual = 1.33526e-06, No Iterations 2
DICPCG:  Solving for p, Initial residual = 0.00544485, Final residual = 0.000270289, No Iterations 87
time step continuity errors : sum local = 4.22334e-11, global = -1.36814e-15, cumulative = 4.90417e-12
DICPCG:  Solving for p, Initial residual = 0.00350845, Final residual = 9.40912e-07, No Iterations 396
time step continuity errors : sum local = 1.46812e-13, global = -8.25127e-17, cumulative = 4.90409e-12
ExecutionTime = 49.13 s  ClockTime = 49 s

Time = 0.54

Courant Number mean: 0.00140913 max: 0.0312533
smoothSolver:  Solving for Ux, Initial residual = 0.000294267, Final residual = 9.48482e-06, No Iterations 1
smoothSolver:  Solving for Uy, Initial residual = 0.000853786, Final residual = 1.31093e-06, No Iterations 2
DICPCG:  Solving for p, Initial residual = 0.00533895, Final residual = 0.000262713, No Iterations 88
time step continuity errors : sum local = 4.09111e-11, global = 6.30743e-16, cumulative = 4.90472e-12
DICPCG:  Solving for p, Initial residual = 0.00346148, Final residual = 9.19695e-07, No Iterations 396
time step continuity errors : sum local = 1.43014e-13, global = -1.69213e-16, cumulative = 4.90455e-12
ExecutionTime = 50.06 s  ClockTime = 50 s

Time = 0.55

Courant Number mean: 0.00140906 max: 0.0311828
smoothSolver:  Solving for Ux, Initial residual = 0.000288913, Final residual = 9.2668e-06, No Iterations 1
smoothSolver:  Solving for Uy, Initial residual = 0.000844323, Final residual = 1.28718e-06, No Iterations 2
DICPCG:  Solving for p, Initial residual = 0.0052579, Final residual = 0.000259556, No Iterations 88
time step continuity errors : sum local = 4.02813e-11, global = 4.75012e-16, cumulative = 4.90502e-12
DICPCG:  Solving for p, Initial residual = 0.00341707, Final residual = 9.34847e-07, No Iterations 396
time step continuity errors : sum local = 1.44875e-13, global = -1.6782e-16, cumulative = 4.90486e-12
ExecutionTime = 51 s  ClockTime = 51 s

Time = 0.56

Courant Number mean: 0.00140899 max: 0.0311118
smoothSolver:  Solving for Ux, Initial residual = 0.000283756, Final residual = 9.05708e-06, No Iterations 1
smoothSolver:  Solving for Uy, Initial residual = 0.000835126, Final residual = 1.2642e-06, No Iterations 2
DICPCG:  Solving for p, Initial residual = 0.00513449, Final residual = 0.000254036, No Iterations 88
time step continuity errors : sum local = 3.92921e-11, global = 4.54592e-16, cumulative = 4.90531e-12
DICPCG:  Solving for p, Initial residual = 0.00336949, Final residual = 9.01132e-07, No Iterations 396
time step continuity errors : sum local = 1.39186e-13, global = -1.51152e-16, cumulative = 4.90516e-12
ExecutionTime = 51.93 s  ClockTime = 52 s

Time = 0.57

Courant Number mean: 0.00140892 max: 0.0310403
smoothSolver:  Solving for Ux, Initial residual = 0.000278789, Final residual = 8.85554e-06, No Iterations 1
smoothSolver:  Solving for Uy, Initial residual = 0.000826221, Final residual = 1.24194e-06, No Iterations 2
DICPCG:  Solving for p, Initial residual = 0.00507392, Final residual = 0.000252265, No Iterations 88
time step continuity errors : sum local = 3.88874e-11, global = 4.57828e-16, cumulative = 4.90562e-12
DICPCG:  Solving for p, Initial residual = 0.00332898, Final residual = 9.68461e-07, No Iterations 395
time step continuity errors : sum local = 1.49077e-13, global = -2.25832e-16, cumulative = 4.90539e-12
ExecutionTime = 52.86 s  ClockTime = 53 s

Time = 0.58

Courant Number mean: 0.00140885 max: 0.0309685
smoothSolver:  Solving for Ux, Initial residual = 0.000274003, Final residual = 8.66203e-06, No Iterations 1
smoothSolver:  Solving for Uy, Initial residual = 0.000817595, Final residual = 1.22035e-06, No Iterations 2
DICPCG:  Solving for p, Initial residual = 0.00495006, Final residual = 0.000247016, No Iterations 88
time step continuity errors : sum local = 3.79511e-11, global = 4.38147e-16, cumulative = 4.90583e-12
DICPCG:  Solving for p, Initial residual = 0.00328411, Final residual = 9.77626e-07, No Iterations 395
time step continuity errors : sum local = 1.49991e-13, global = -2.17055e-16, cumulative = 4.90561e-12
ExecutionTime = 53.71 s  ClockTime = 54 s

Time = 0.59

Courant Number mean: 0.00140879 max: 0.0308964
smoothSolver:  Solving for Ux, Initial residual = 0.000269392, Final residual = 8.47625e-06, No Iterations 1
smoothSolver:  Solving for Uy, Initial residual = 0.000809164, Final residual = 1.19936e-06, No Iterations 2
DICPCG:  Solving for p, Initial residual = 0.00487074, Final residual = 0.000242326, No Iterations 88
time step continuity errors : sum local = 3.71102e-11, global = -1.2884e-17, cumulative = 4.9056e-12
DICPCG:  Solving for p, Initial residual = 0.00324278, Final residual = 9.73411e-07, No Iterations 395
time step continuity errors : sum local = 1.48871e-13, global = -2.16089e-16, cumulative = 4.90538e-12
ExecutionTime = 54.56 s  ClockTime = 55 s

Time = 0.6

Courant Number mean: 0.00140872 max: 0.030824
smoothSolver:  Solving for Ux, Initial residual = 0.00026494, Final residual = 8.2975e-06, No Iterations 1
smoothSolver:  Solving for Uy, Initial residual = 0.000800941, Final residual = 1.17902e-06, No Iterations 2
DICPCG:  Solving for p, Initial residual = 0.00481685, Final residual = 0.000234368, No Iterations 89
time step continuity errors : sum local = 3.57772e-11, global = 1.36976e-15, cumulative = 4.90675e-12
DICPCG:  Solving for p, Initial residual = 0.00320834, Final residual = 9.41244e-07, No Iterations 395
time step continuity errors : sum local = 1.43489e-13, global = -2.42927e-16, cumulative = 4.90651e-12
ExecutionTime = 55.42 s  ClockTime = 56 s

Time = 0.61

Courant Number mean: 0.00140865 max: 0.0307514
smoothSolver:  Solving for Ux, Initial residual = 0.000260637, Final residual = 8.12539e-06, No Iterations 1
smoothSolver:  Solving for Uy, Initial residual = 0.000792932, Final residual = 1.15931e-06, No Iterations 2
DICPCG:  Solving for p, Initial residual = 0.00471685, Final residual = 0.00022972, No Iterations 89
time step continuity errors : sum local = 3.49551e-11, global = 3.74142e-16, cumulative = 4.90689e-12
DICPCG:  Solving for p, Initial residual = 0.00316625, Final residual = 9.52098e-07, No Iterations 395
time step continuity errors : sum local = 1.44678e-13, global = -2.18538e-16, cumulative = 4.90667e-12
ExecutionTime = 56.28 s  ClockTime = 56 s

Time = 0.62

Courant Number mean: 0.00140859 max: 0.0306786
smoothSolver:  Solving for Ux, Initial residual = 0.000256481, Final residual = 7.95971e-06, No Iterations 1
smoothSolver:  Solving for Uy, Initial residual = 0.000785138, Final residual = 1.14019e-06, No Iterations 2
DICPCG:  Solving for p, Initial residual = 0.00462683, Final residual = 0.000224798, No Iterations 89
time step continuity errors : sum local = 3.40991e-11, global = 3.70509e-16, cumulative = 4.90704e-12
DICPCG:  Solving for p, Initial residual = 0.00312523, Final residual = 9.4208e-07, No Iterations 395
time step continuity errors : sum local = 1.42716e-13, global = -2.17087e-16, cumulative = 4.90682e-12
ExecutionTime = 57.13 s  ClockTime = 57 s

Time = 0.63

Courant Number mean: 0.00140852 max: 0.0306056
smoothSolver:  Solving for Ux, Initial residual = 0.000252462, Final residual = 7.80022e-06, No Iterations 1
smoothSolver:  Solving for Uy, Initial residual = 0.000777525, Final residual = 1.12166e-06, No Iterations 2
DICPCG:  Solving for p, Initial residual = 0.0045628, Final residual = 0.000221802, No Iterations 89
time step continuity errors : sum local = 3.3542e-11, global = 3.53764e-16, cumulative = 4.90717e-12
DICPCG:  Solving for p, Initial residual = 0.00308916, Final residual = 9.1782e-07, No Iterations 395
time step continuity errors : sum local = 1.38619e-13, global = -2.14835e-16, cumulative = 4.90696e-12
ExecutionTime = 57.98 s  ClockTime = 58 s

Time = 0.64

Courant Number mean: 0.00140846 max: 0.0305325
smoothSolver:  Solving for Ux, Initial residual = 0.000248574, Final residual = 7.64642e-06, No Iterations 1
smoothSolver:  Solving for Uy, Initial residual = 0.000770104, Final residual = 1.10368e-06, No Iterations 2
DICPCG:  Solving for p, Initial residual = 0.00452742, Final residual = 0.000220409, No Iterations 89
time step continuity errors : sum local = 3.32305e-11, global = 3.63183e-16, cumulative = 4.90732e-12
DICPCG:  Solving for p, Initial residual = 0.0030555, Final residual = 9.2427e-07, No Iterations 395
time step continuity errors : sum local = 1.39171e-13, global = -2.062e-16, cumulative = 4.90712e-12
ExecutionTime = 58.84 s  ClockTime = 59 s

Time = 0.65

Courant Number mean: 0.0014084 max: 0.0304594
smoothSolver:  Solving for Ux, Initial residual = 0.000244813, Final residual = 7.49817e-06, No Iterations 1
smoothSolver:  Solving for Uy, Initial residual = 0.000762862, Final residual = 1.08622e-06, No Iterations 2
DICPCG:  Solving for p, Initial residual = 0.0044709, Final residual = 0.000219001, No Iterations 89
time step continuity errors : sum local = 3.29178e-11, global = 3.74567e-16, cumulative = 4.90749e-12
DICPCG:  Solving for p, Initial residual = 0.00302588, Final residual = 9.23727e-07, No Iterations 395
time step continuity errors : sum local = 1.38661e-13, global = -2.33101e-16, cumulative = 4.90726e-12
ExecutionTime = 59.7 s  ClockTime = 60 s

Time = 0.66

Courant Number mean: 0.00140833 max: 0.0303862
smoothSolver:  Solving for Ux, Initial residual = 0.000241167, Final residual = 7.35509e-06, No Iterations 1
smoothSolver:  Solving for Uy, Initial residual = 0.000755788, Final residual = 1.06927e-06, No Iterations 2
DICPCG:  Solving for p, Initial residual = 0.00438545, Final residual = 0.000213777, No Iterations 89
time step continuity errors : sum local = 3.20366e-11, global = 3.57062e-16, cumulative = 4.90761e-12
DICPCG:  Solving for p, Initial residual = 0.00298773, Final residual = 8.92923e-07, No Iterations 395
time step continuity errors : sum local = 1.33651e-13, global = -2.1226e-16, cumulative = 4.9074e-12
ExecutionTime = 60.56 s  ClockTime = 61 s

Time = 0.67

Courant Number mean: 0.00140827 max: 0.030313
smoothSolver:  Solving for Ux, Initial residual = 0.000237636, Final residual = 7.21703e-06, No Iterations 1
smoothSolver:  Solving for Uy, Initial residual = 0.000748873, Final residual = 1.05276e-06, No Iterations 2
DICPCG:  Solving for p, Initial residual = 0.00433306, Final residual = 0.000210896, No Iterations 89
time step continuity errors : sum local = 3.15122e-11, global = 3.65437e-16, cumulative = 4.90777e-12
DICPCG:  Solving for p, Initial residual = 0.00295715, Final residual = 9.90997e-07, No Iterations 394
time step continuity errors : sum local = 1.47885e-13, global = -2.64217e-16, cumulative = 4.9075e-12
ExecutionTime = 61.42 s  ClockTime = 62 s

Time = 0.68

Courant Number mean: 0.00140821 max: 0.0302398
smoothSolver:  Solving for Ux, Initial residual = 0.00023421, Final residual = 7.08366e-06, No Iterations 1
smoothSolver:  Solving for Uy, Initial residual = 0.000742126, Final residual = 1.03676e-06, No Iterations 2
DICPCG:  Solving for p, Initial residual = 0.00428787, Final residual = 0.000207938, No Iterations 89
time step continuity errors : sum local = 3.09768e-11, global = 3.96413e-16, cumulative = 4.9079e-12
DICPCG:  Solving for p, Initial residual = 0.00292823, Final residual = 9.92264e-07, No Iterations 394
time step continuity errors : sum local = 1.47628e-13, global = -2.61231e-16, cumulative = 4.90764e-12
ExecutionTime = 62.28 s  ClockTime = 62 s

Time = 0.69

Courant Number mean: 0.00140815 max: 0.0301666
smoothSolver:  Solving for Ux, Initial residual = 0.000230887, Final residual = 6.95456e-06, No Iterations 1
smoothSolver:  Solving for Uy, Initial residual = 0.00073554, Final residual = 1.0212e-06, No Iterations 2
DICPCG:  Solving for p, Initial residual = 0.00421754, Final residual = 0.000207735, No Iterations 89
time step continuity errors : sum local = 3.08541e-11, global = 3.93394e-16, cumulative = 4.90803e-12
DICPCG:  Solving for p, Initial residual = 0.00289457, Final residual = 9.83026e-07, No Iterations 394
time step continuity errors : sum local = 1.45817e-13, global = -2.69917e-16, cumulative = 4.90776e-12
ExecutionTime = 63.13 s  ClockTime = 63 s

Time = 0.7

Courant Number mean: 0.00140809 max: 0.0300935
smoothSolver:  Solving for Ux, Initial residual = 0.000227661, Final residual = 6.82984e-06, No Iterations 1
smoothSolver:  Solving for Uy, Initial residual = 0.000729066, Final residual = 1.00606e-06, No Iterations 2
DICPCG:  Solving for p, Initial residual = 0.00413689, Final residual = 0.000203796, No Iterations 89
time step continuity errors : sum local = 3.0179e-11, global = 3.8842e-16, cumulative = 4.90815e-12
DICPCG:  Solving for p, Initial residual = 0.00286207, Final residual = 9.54289e-07, No Iterations 394
time step continuity errors : sum local = 1.41135e-13, global = -2.57419e-16, cumulative = 4.90789e-12
ExecutionTime = 64 s  ClockTime = 64 s

Time = 0.71

Courant Number mean: 0.00140803 max: 0.0300204
smoothSolver:  Solving for Ux, Initial residual = 0.000224529, Final residual = 6.70918e-06, No Iterations 1
smoothSolver:  Solving for Uy, Initial residual = 0.000722783, Final residual = 9.98183e-06, No Iterations 1
DICPCG:  Solving for p, Initial residual = 0.00398797, Final residual = 0.00019883, No Iterations 85
time step continuity errors : sum local = 2.9355e-11, global = 5.08023e-16, cumulative = 4.9084e-12
DICPCG:  Solving for p, Initial residual = 0.00267042, Final residual = 9.9047e-07, No Iterations 390
time step continuity errors : sum local = 1.46037e-13, global = 2.05997e-16, cumulative = 4.90861e-12
ExecutionTime = 64.84 s  ClockTime = 65 s

Time = 0.72

Courant Number mean: 0.00140797 max: 0.0299477
smoothSolver:  Solving for Ux, Initial residual = 0.000221365, Final residual = 6.59271e-06, No Iterations 1
smoothSolver:  Solving for Uy, Initial residual = 0.000716228, Final residual = 9.87153e-06, No Iterations 1
DICPCG:  Solving for p, Initial residual = 0.0039186, Final residual = 0.000192389, No Iterations 84
time step continuity errors : sum local = 2.83187e-11, global = 5.95508e-16, cumulative = 4.9092e-12
DICPCG:  Solving for p, Initial residual = 0.00262993, Final residual = 9.6159e-07, No Iterations 390
time step continuity errors : sum local = 1.41364e-13, global = 2.69543e-16, cumulative = 4.90947e-12
ExecutionTime = 65.69 s  ClockTime = 66 s

Time = 0.73

Courant Number mean: 0.00140791 max: 0.029875
smoothSolver:  Solving for Ux, Initial residual = 0.000218421, Final residual = 6.47999e-06, No Iterations 1
smoothSolver:  Solving for Uy, Initial residual = 0.000710208, Final residual = 9.75328e-06, No Iterations 1
DICPCG:  Solving for p, Initial residual = 0.00387111, Final residual = 0.00019075, No Iterations 84
time step continuity errors : sum local = 2.79962e-11, global = 7.47841e-16, cumulative = 4.91022e-12
DICPCG:  Solving for p, Initial residual = 0.00260756, Final residual = 9.61613e-07, No Iterations 390
time step continuity errors : sum local = 1.40957e-13, global = 2.76977e-16, cumulative = 4.9105e-12
ExecutionTime = 66.51 s  ClockTime = 67 s

Time = 0.74

Courant Number mean: 0.00140785 max: 0.0298025
smoothSolver:  Solving for Ux, Initial residual = 0.000215553, Final residual = 6.37063e-06, No Iterations 1
smoothSolver:  Solving for Uy, Initial residual = 0.00070431, Final residual = 9.63754e-06, No Iterations 1
DICPCG:  Solving for p, Initial residual = 0.00381477, Final residual = 0.000188369, No Iterations 84
time step continuity errors : sum local = 2.75673e-11, global = 7.14844e-16, cumulative = 4.91121e-12
DICPCG:  Solving for p, Initial residual = 0.00258344, Final residual = 9.52748e-07, No Iterations 390
time step continuity errors : sum local = 1.39259e-13, global = 2.80415e-16, cumulative = 4.91149e-12
ExecutionTime = 67.36 s  ClockTime = 68 s

Time = 0.75

Courant Number mean: 0.00140779 max: 0.0297302
smoothSolver:  Solving for Ux, Initial residual = 0.000212765, Final residual = 6.26464e-06, No Iterations 1
smoothSolver:  Solving for Uy, Initial residual = 0.000698533, Final residual = 9.52436e-06, No Iterations 1
DICPCG:  Solving for p, Initial residual = 0.00378187, Final residual = 0.000187236, No Iterations 84
time step continuity errors : sum local = 2.73243e-11, global = 7.12833e-16, cumulative = 4.9122e-12
DICPCG:  Solving for p, Initial residual = 0.00256259, Final residual = 9.40649e-07, No Iterations 390
time step continuity errors : sum local = 1.37108e-13, global = 2.80255e-16, cumulative = 4.91249e-12
ExecutionTime = 68.2 s  ClockTime = 68 s

Time = 0.76

Courant Number mean: 0.00140773 max: 0.029658
smoothSolver:  Solving for Ux, Initial residual = 0.000210049, Final residual = 6.16183e-06, No Iterations 1
smoothSolver:  Solving for Uy, Initial residual = 0.000692871, Final residual = 9.41388e-06, No Iterations 1
DICPCG:  Solving for p, Initial residual = 0.00373823, Final residual = 0.000184348, No Iterations 84
time step continuity errors : sum local = 2.68279e-11, global = 6.94436e-16, cumulative = 4.91318e-12
DICPCG:  Solving for p, Initial residual = 0.00253918, Final residual = 9.3153e-07, No Iterations 390
time step continuity errors : sum local = 1.354e-13, global = 2.78036e-16, cumulative = 4.91346e-12
ExecutionTime = 69.05 s  ClockTime = 69 s

Time = 0.77

Courant Number mean: 0.00140768 max: 0.0295859
smoothSolver:  Solving for Ux, Initial residual = 0.000207409, Final residual = 6.06208e-06, No Iterations 1
smoothSolver:  Solving for Uy, Initial residual = 0.000687332, Final residual = 9.30551e-06, No Iterations 1
DICPCG:  Solving for p, Initial residual = 0.00371267, Final residual = 0.00018458, No Iterations 84
time step continuity errors : sum local = 2.6787e-11, global = 7.00126e-16, cumulative = 4.91416e-12
DICPCG:  Solving for p, Initial residual = 0.00252089, Final residual = 9.92434e-07, No Iterations 389
time step continuity errors : sum local = 1.43851e-13, global = 1.61122e-16, cumulative = 4.91432e-12
ExecutionTime = 69.89 s  ClockTime = 70 s

Time = 0.78

Courant Number mean: 0.00140762 max: 0.0295141
smoothSolver:  Solving for Ux, Initial residual = 0.00020484, Final residual = 5.96531e-06, No Iterations 1
smoothSolver:  Solving for Uy, Initial residual = 0.000681916, Final residual = 9.19978e-06, No Iterations 1
DICPCG:  Solving for p, Initial residual = 0.00366312, Final residual = 0.000181868, No Iterations 84
time step continuity errors : sum local = 2.63207e-11, global = 6.89119e-16, cumulative = 4.91501e-12
DICPCG:  Solving for p, Initial residual = 0.00249859, Final residual = 9.82479e-07, No Iterations 389
time step continuity errors : sum local = 1.4202e-13, global = 1.7237e-16, cumulative = 4.91518e-12
ExecutionTime = 70.72 s  ClockTime = 71 s

Time = 0.79

Courant Number mean: 0.00140756 max: 0.0294425
smoothSolver:  Solving for Ux, Initial residual = 0.000202334, Final residual = 5.87146e-06, No Iterations 1
smoothSolver:  Solving for Uy, Initial residual = 0.000676583, Final residual = 9.09613e-06, No Iterations 1
DICPCG:  Solving for p, Initial residual = 0.00365395, Final residual = 0.000182595, No Iterations 84
time step continuity errors : sum local = 2.63533e-11, global = 7.07024e-16, cumulative = 4.91589e-12
DICPCG:  Solving for p, Initial residual = 0.00248158, Final residual = 9.72714e-07, No Iterations 389
time step continuity errors : sum local = 1.40217e-13, global = 1.71761e-16, cumulative = 4.91606e-12
ExecutionTime = 71.56 s  ClockTime = 72 s

Time = 0.8

Courant Number mean: 0.00140751 max: 0.0293884
smoothSolver:  Solving for Ux, Initial residual = 0.000199894, Final residual = 5.78026e-06, No Iterations 1
smoothSolver:  Solving for Uy, Initial residual = 0.00067138, Final residual = 8.99462e-06, No Iterations 1
DICPCG:  Solving for p, Initial residual = 0.00359298, Final residual = 0.000178467, No Iterations 84
time step continuity errors : sum local = 2.56874e-11, global = 6.74065e-16, cumulative = 4.91673e-12
DICPCG:  Solving for p, Initial residual = 0.00246088, Final residual = 9.62958e-07, No Iterations 389
time step continuity errors : sum local = 1.3844e-13, global = 1.72632e-16, cumulative = 4.91691e-12
ExecutionTime = 72.4 s  ClockTime = 73 s

Time = 0.81

Courant Number mean: 0.00140745 max: 0.0293479
smoothSolver:  Solving for Ux, Initial residual = 0.000197513, Final residual = 5.69167e-06, No Iterations 1
smoothSolver:  Solving for Uy, Initial residual = 0.000666255, Final residual = 8.89523e-06, No Iterations 1
DICPCG:  Solving for p, Initial residual = 0.00355222, Final residual = 0.000176357, No Iterations 84
time step continuity errors : sum local = 2.53162e-11, global = 6.75286e-16, cumulative = 4.91758e-12
DICPCG:  Solving for p, Initial residual = 0.00244086, Final residual = 9.5334e-07, No Iterations 389
time step continuity errors : sum local = 1.36693e-13, global = 1.70268e-16, cumulative = 4.91775e-12
ExecutionTime = 73.25 s  ClockTime = 73 s

Time = 0.82

Courant Number mean: 0.0014074 max: 0.0293071
smoothSolver:  Solving for Ux, Initial residual = 0.00019519, Final residual = 5.60558e-06, No Iterations 1
smoothSolver:  Solving for Uy, Initial residual = 0.000661216, Final residual = 8.79766e-06, No Iterations 1
DICPCG:  Solving for p, Initial residual = 0.0035085, Final residual = 0.00017497, No Iterations 84
time step continuity errors : sum local = 2.50492e-11, global = 6.71742e-16, cumulative = 4.91842e-12
DICPCG:  Solving for p, Initial residual = 0.00242103, Final residual = 9.42246e-07, No Iterations 389
time step continuity errors : sum local = 1.34732e-13, global = 1.72506e-16, cumulative = 4.9186e-12
ExecutionTime = 74.09 s  ClockTime = 74 s

Time = 0.83

Courant Number mean: 0.00140734 max: 0.0292661
smoothSolver:  Solving for Ux, Initial residual = 0.000192922, Final residual = 5.52192e-06, No Iterations 1
smoothSolver:  Solving for Uy, Initial residual = 0.000656301, Final residual = 8.70325e-06, No Iterations 1
DICPCG:  Solving for p, Initial residual = 0.00347091, Final residual = 0.000172376, No Iterations 84
time step continuity errors : sum local = 2.46115e-11, global = 6.79354e-16, cumulative = 4.91928e-12
DICPCG:  Solving for p, Initial residual = 0.00239993, Final residual = 9.83435e-07, No Iterations 388
time step continuity errors : sum local = 1.40249e-13, global = 1.07323e-16, cumulative = 4.91938e-12
ExecutionTime = 74.93 s  ClockTime = 75 s

Time = 0.84

Courant Number mean: 0.00140729 max: 0.0292249
smoothSolver:  Solving for Ux, Initial residual = 0.000190711, Final residual = 5.44063e-06, No Iterations 1
smoothSolver:  Solving for Uy, Initial residual = 0.000651462, Final residual = 8.6104e-06, No Iterations 1
DICPCG:  Solving for p, Initial residual = 0.00347674, Final residual = 0.000173605, No Iterations 84
time step continuity errors : sum local = 2.472e-11, global = 6.68889e-16, cumulative = 4.92005e-12
DICPCG:  Solving for p, Initial residual = 0.00238752, Final residual = 9.20419e-07, No Iterations 389
time step continuity errors : sum local = 1.309e-13, global = 1.76386e-16, cumulative = 4.92023e-12
ExecutionTime = 75.77 s  ClockTime = 76 s

Time = 0.85

Courant Number mean: 0.00140723 max: 0.0291835
smoothSolver:  Solving for Ux, Initial residual = 0.000188549, Final residual = 5.36154e-06, No Iterations 1
smoothSolver:  Solving for Uy, Initial residual = 0.000646728, Final residual = 8.5197e-06, No Iterations 1
DICPCG:  Solving for p, Initial residual = 0.00349184, Final residual = 0.000171453, No Iterations 84
time step continuity errors : sum local = 2.43442e-11, global = 6.58548e-16, cumulative = 4.92089e-12
DICPCG:  Solving for p, Initial residual = 0.00237209, Final residual = 9.17112e-07, No Iterations 389
time step continuity errors : sum local = 1.30049e-13, global = 1.80729e-16, cumulative = 4.92107e-12
ExecutionTime = 76.6 s  ClockTime = 77 s

Time = 0.86

Courant Number mean: 0.00140718 max: 0.0291419
smoothSolver:  Solving for Ux, Initial residual = 0.000186438, Final residual = 5.28451e-06, No Iterations 1
smoothSolver:  Solving for Uy, Initial residual = 0.000642081, Final residual = 8.4311e-06, No Iterations 1
DICPCG:  Solving for p, Initial residual = 0.00340118, Final residual = 0.000168536, No Iterations 84
time step continuity errors : sum local = 2.38641e-11, global = 6.74936e-16, cumulative = 4.92174e-12
DICPCG:  Solving for p, Initial residual = 0.00234822, Final residual = 9.97622e-07, No Iterations 388
time step continuity errors : sum local = 1.41096e-13, global = 1.07637e-16, cumulative = 4.92185e-12
ExecutionTime = 77.45 s  ClockTime = 78 s

Time = 0.87

Courant Number mean: 0.00140713 max: 0.0291001
smoothSolver:  Solving for Ux, Initial residual = 0.00018438, Final residual = 5.20965e-06, No Iterations 1
smoothSolver:  Solving for Uy, Initial residual = 0.000637497, Final residual = 8.34311e-06, No Iterations 1
DICPCG:  Solving for p, Initial residual = 0.00336908, Final residual = 0.000163732, No Iterations 85
time step continuity errors : sum local = 2.31211e-11, global = 4.29847e-16, cumulative = 4.92228e-12
DICPCG:  Solving for p, Initial residual = 0.00233226, Final residual = 9.80018e-07, No Iterations 388
time step continuity errors : sum local = 1.38219e-13, global = 7.97966e-17, cumulative = 4.92236e-12
ExecutionTime = 78.29 s  ClockTime = 78 s

Time = 0.88

Courant Number mean: 0.00140707 max: 0.0290582
smoothSolver:  Solving for Ux, Initial residual = 0.000182368, Final residual = 5.13672e-06, No Iterations 1
smoothSolver:  Solving for Uy, Initial residual = 0.000632989, Final residual = 8.2575e-06, No Iterations 1
DICPCG:  Solving for p, Initial residual = 0.00333535, Final residual = 0.000163789, No Iterations 85
time step continuity errors : sum local = 2.30659e-11, global = 3.97065e-16, cumulative = 4.92276e-12
DICPCG:  Solving for p, Initial residual = 0.00231552, Final residual = 9.73893e-07, No Iterations 388
time step continuity errors : sum local = 1.36988e-13, global = 8.15087e-17, cumulative = 4.92284e-12
ExecutionTime = 79.13 s  ClockTime = 79 s

Time = 0.89

Courant Number mean: 0.00140702 max: 0.0290162
smoothSolver:  Solving for Ux, Initial residual = 0.000180401, Final residual = 5.06581e-06, No Iterations 1
smoothSolver:  Solving for Uy, Initial residual = 0.000628563, Final residual = 8.17349e-06, No Iterations 1
DICPCG:  Solving for p, Initial residual = 0.00329235, Final residual = 0.000161214, No Iterations 85
time step continuity errors : sum local = 2.26429e-11, global = 4.07361e-16, cumulative = 4.92325e-12
DICPCG:  Solving for p, Initial residual = 0.0022978, Final residual = 9.66872e-07, No Iterations 388
time step continuity errors : sum local = 1.35638e-13, global = 8.45925e-17, cumulative = 4.92333e-12
ExecutionTime = 79.97 s  ClockTime = 80 s

Time = 0.9

Courant Number mean: 0.00140697 max: 0.028974
smoothSolver:  Solving for Ux, Initial residual = 0.000178478, Final residual = 4.99672e-06, No Iterations 1
smoothSolver:  Solving for Uy, Initial residual = 0.000624217, Final residual = 8.09131e-06, No Iterations 1
DICPCG:  Solving for p, Initial residual = 0.00324393, Final residual = 0.000159334, No Iterations 85
time step continuity errors : sum local = 2.23192e-11, global = 3.88397e-16, cumulative = 4.92372e-12
DICPCG:  Solving for p, Initial residual = 0.00228092, Final residual = 9.56912e-07, No Iterations 388
time step continuity errors : sum local = 1.33885e-13, global = 8.52039e-17, cumulative = 4.9238e-12
ExecutionTime = 80.8 s  ClockTime = 81 s

Time = 0.91

Courant Number mean: 0.00140692 max: 0.0289316
smoothSolver:  Solving for Ux, Initial residual = 0.000176597, Final residual = 4.92938e-06, No Iterations 1
smoothSolver:  Solving for Uy, Initial residual = 0.000619938, Final residual = 8.01062e-06, No Iterations 1
DICPCG:  Solving for p, Initial residual = 0.00321052, Final residual = 0.000157882, No Iterations 85
time step continuity errors : sum local = 2.20578e-11, global = 3.78432e-16, cumulative = 4.92418e-12
DICPCG:  Solving for p, Initial residual = 0.00226488, Final residual = 9.5868e-07, No Iterations 388
time step continuity errors : sum local = 1.33782e-13, global = 8.28423e-17, cumulative = 4.92426e-12
ExecutionTime = 81.65 s  ClockTime = 82 s

Time = 0.92

Courant Number mean: 0.00140687 max: 0.0288892
smoothSolver:  Solving for Ux, Initial residual = 0.000174756, Final residual = 4.86377e-06, No Iterations 1
smoothSolver:  Solving for Uy, Initial residual = 0.000615734, Final residual = 7.9316e-06, No Iterations 1
DICPCG:  Solving for p, Initial residual = 0.00318879, Final residual = 0.000157343, No Iterations 85
time step continuity errors : sum local = 2.1925e-11, global = 3.61764e-16, cumulative = 4.92463e-12
DICPCG:  Solving for p, Initial residual = 0.0022508, Final residual = 9.50844e-07, No Iterations 388
time step continuity errors : sum local = 1.32341e-13, global = 8.78865e-17, cumulative = 4.92471e-12
ExecutionTime = 82.48 s  ClockTime = 83 s

Time = 0.93

Courant Number mean: 0.00140681 max: 0.0288467
smoothSolver:  Solving for Ux, Initial residual = 0.000172959, Final residual = 4.79982e-06, No Iterations 1
smoothSolver:  Solving for Uy, Initial residual = 0.000611608, Final residual = 7.85402e-06, No Iterations 1
DICPCG:  Solving for p, Initial residual = 0.00316113, Final residual = 0.000156011, No Iterations 85
time step continuity errors : sum local = 2.16825e-11, global = 2.93741e-16, cumulative = 4.92501e-12
DICPCG:  Solving for p, Initial residual = 0.00223562, Final residual = 9.3955e-07, No Iterations 388
time step continuity errors : sum local = 1.30428e-13, global = 8.49858e-17, cumulative = 4.92509e-12
ExecutionTime = 83.31 s  ClockTime = 83 s

Time = 0.94

Courant Number mean: 0.00140676 max: 0.028804
smoothSolver:  Solving for Ux, Initial residual = 0.000171197, Final residual = 4.73743e-06, No Iterations 1
smoothSolver:  Solving for Uy, Initial residual = 0.000607529, Final residual = 7.77789e-06, No Iterations 1
DICPCG:  Solving for p, Initial residual = 0.00312892, Final residual = 0.000153837, No Iterations 85
time step continuity errors : sum local = 2.13253e-11, global = 7.16232e-17, cumulative = 4.92516e-12
DICPCG:  Solving for p, Initial residual = 0.00221976, Final residual = 9.34936e-07, No Iterations 388
time step continuity errors : sum local = 1.29456e-13, global = 9.07633e-17, cumulative = 4.92526e-12
ExecutionTime = 84.16 s  ClockTime = 84 s

Time = 0.95

Courant Number mean: 0.00140671 max: 0.0287613
smoothSolver:  Solving for Ux, Initial residual = 0.000169472, Final residual = 4.67656e-06, No Iterations 1
smoothSolver:  Solving for Uy, Initial residual = 0.000603522, Final residual = 7.70335e-06, No Iterations 1
DICPCG:  Solving for p, Initial residual = 0.00311442, Final residual = 0.000152818, No Iterations 85
time step continuity errors : sum local = 2.11303e-11, global = 4.22703e-16, cumulative = 4.92568e-12
DICPCG:  Solving for p, Initial residual = 0.00220586, Final residual = 9.28508e-07, No Iterations 388
time step continuity errors : sum local = 1.28242e-13, global = 9.44465e-17, cumulative = 4.92577e-12
ExecutionTime = 84.99 s  ClockTime = 85 s

Time = 0.96

Courant Number mean: 0.00140666 max: 0.0287186
smoothSolver:  Solving for Ux, Initial residual = 0.000167783, Final residual = 4.61715e-06, No Iterations 1
smoothSolver:  Solving for Uy, Initial residual = 0.000599581, Final residual = 7.63009e-06, No Iterations 1
DICPCG:  Solving for p, Initial residual = 0.00310057, Final residual = 0.000151861, No Iterations 85
time step continuity errors : sum local = 2.09451e-11, global = 1.1948e-15, cumulative = 4.92697e-12
DICPCG:  Solving for p, Initial residual = 0.00219146, Final residual = 9.17151e-07, No Iterations 388
time step continuity errors : sum local = 1.26355e-13, global = 9.64996e-17, cumulative = 4.92706e-12
ExecutionTime = 85.83 s  ClockTime = 86 s

Time = 0.97

Courant Number mean: 0.00140661 max: 0.0286757
smoothSolver:  Solving for Ux, Initial residual = 0.000166128, Final residual = 4.55909e-06, No Iterations 1
smoothSolver:  Solving for Uy, Initial residual = 0.000595708, Final residual = 7.55809e-06, No Iterations 1
DICPCG:  Solving for p, Initial residual = 0.00308488, Final residual = 0.000151396, No Iterations 85
time step continuity errors : sum local = 2.08285e-11, global = 4.09115e-16, cumulative = 4.92747e-12
DICPCG:  Solving for p, Initial residual = 0.00217953, Final residual = 9.14296e-07, No Iterations 388
time step continuity errors : sum local = 1.25644e-13, global = 9.20585e-17, cumulative = 4.92756e-12
ExecutionTime = 86.67 s  ClockTime = 87 s

Time = 0.98

Courant Number mean: 0.00140656 max: 0.0286328
smoothSolver:  Solving for Ux, Initial residual = 0.000164506, Final residual = 4.50248e-06, No Iterations 1
smoothSolver:  Solving for Uy, Initial residual = 0.000591884, Final residual = 7.48718e-06, No Iterations 1
DICPCG:  Solving for p, Initial residual = 0.00306211, Final residual = 0.000150709, No Iterations 85
time step continuity errors : sum local = 2.06822e-11, global = 3.98344e-16, cumulative = 4.92796e-12
DICPCG:  Solving for p, Initial residual = 0.00216554, Final residual = 9.96878e-07, No Iterations 387
time step continuity errors : sum local = 1.36655e-13, global = 8.79083e-17, cumulative = 4.92805e-12
ExecutionTime = 87.51 s  ClockTime = 88 s

Time = 0.99

Courant Number mean: 0.00140651 max: 0.0285899
smoothSolver:  Solving for Ux, Initial residual = 0.000162916, Final residual = 4.44709e-06, No Iterations 1
smoothSolver:  Solving for Uy, Initial residual = 0.000588122, Final residual = 7.41768e-06, No Iterations 1
DICPCG:  Solving for p, Initial residual = 0.00305011, Final residual = 0.000150037, No Iterations 85
time step continuity errors : sum local = 2.05389e-11, global = 3.98293e-16, cumulative = 4.92845e-12
DICPCG:  Solving for p, Initial residual = 0.00215388, Final residual = 9.93005e-07, No Iterations 387
time step continuity errors : sum local = 1.35782e-13, global = 8.89882e-17, cumulative = 4.92854e-12
ExecutionTime = 88.36 s  ClockTime = 88 s

Time = 1

Courant Number mean: 0.00140646 max: 0.028547
smoothSolver:  Solving for Ux, Initial residual = 0.00016136, Final residual = 4.39298e-06, No Iterations 1
smoothSolver:  Solving for Uy, Initial residual = 0.00058443, Final residual = 7.34953e-06, No Iterations 1
DICPCG:  Solving for p, Initial residual = 0.00302386, Final residual = 0.000149369, No Iterations 85
time step continuity errors : sum local = 2.03966e-11, global = 3.76064e-16, cumulative = 4.92891e-12
DICPCG:  Solving for p, Initial residual = 0.00214141, Final residual = 9.84759e-07, No Iterations 387
time step continuity errors : sum local = 1.34323e-13, global = 8.92088e-17, cumulative = 4.929e-12
ExecutionTime = 89.85 s  ClockTime = 90 s

Time = 1.01

Courant Number mean: 0.00140642 max: 0.028504
smoothSolver:  Solving for Ux, Initial residual = 0.000159832, Final residual = 4.34012e-06, No Iterations 1
smoothSolver:  Solving for Uy, Initial residual = 0.000580775, Final residual = 7.28249e-06, No Iterations 1
DICPCG:  Solving for p, Initial residual = 0.00301765, Final residual = 0.000146995, No Iterations 85
time step continuity errors : sum local = 2.00235e-11, global = 4.09737e-16, cumulative = 4.92941e-12
DICPCG:  Solving for p, Initial residual = 0.00212609, Final residual = 9.71491e-07, No Iterations 387
time step continuity errors : sum local = 1.32192e-13, global = 1.08036e-16, cumulative = 4.92952e-12
ExecutionTime = 90.69 s  ClockTime = 91 s

Time = 1.02

Courant Number mean: 0.00140637 max: 0.028461
smoothSolver:  Solving for Ux, Initial residual = 0.000158335, Final residual = 4.28838e-06, No Iterations 1
smoothSolver:  Solving for Uy, Initial residual = 0.000577184, Final residual = 7.21716e-06, No Iterations 1
DICPCG:  Solving for p, Initial residual = 0.00298398, Final residual = 0.000146055, No Iterations 85
time step continuity errors : sum local = 1.98468e-11, global = 3.71595e-16, cumulative = 4.92989e-12
DICPCG:  Solving for p, Initial residual = 0.00211485, Final residual = 9.36167e-07, No Iterations 387
time step continuity errors : sum local = 1.27071e-13, global = 9.48007e-17, cumulative = 4.92999e-12
ExecutionTime = 91.53 s  ClockTime = 92 s

Time = 1.03

Courant Number mean: 0.00140632 max: 0.0284179
smoothSolver:  Solving for Ux, Initial residual = 0.000156867, Final residual = 4.23784e-06, No Iterations 1
smoothSolver:  Solving for Uy, Initial residual = 0.000573647, Final residual = 7.15242e-06, No Iterations 1
DICPCG:  Solving for p, Initial residual = 0.00298445, Final residual = 0.000145621, No Iterations 85
time step continuity errors : sum local = 1.97384e-11, global = 3.97222e-16, cumulative = 4.93039e-12
DICPCG:  Solving for p, Initial residual = 0.00210444, Final residual = 9.69672e-07, No Iterations 387
time step continuity errors : sum local = 1.31285e-13, global = 9.43777e-17, cumulative = 4.93048e-12
ExecutionTime = 92.37 s  ClockTime = 93 s

Time = 1.04

Courant Number mean: 0.00140627 max: 0.0283749
smoothSolver:  Solving for Ux, Initial residual = 0.000155427, Final residual = 4.18842e-06, No Iterations 1
smoothSolver:  Solving for Uy, Initial residual = 0.000570153, Final residual = 7.08758e-06, No Iterations 1
DICPCG:  Solving for p, Initial residual = 0.00294023, Final residual = 0.000143571, No Iterations 85
time step continuity errors : sum local = 1.94117e-11, global = 3.99509e-16, cumulative = 4.93088e-12
DICPCG:  Solving for p, Initial residual = 0.00208928, Final residual = 9.55957e-07, No Iterations 387
time step continuity errors : sum local = 1.29108e-13, global = 1.05169e-16, cumulative = 4.93098e-12
ExecutionTime = 93.2 s  ClockTime = 93 s

Time = 1.05

Courant Number mean: 0.00140622 max: 0.0283319
smoothSolver:  Solving for Ux, Initial residual = 0.000154014, Final residual = 4.13997e-06, No Iterations 1
smoothSolver:  Solving for Uy, Initial residual = 0.000566712, Final residual = 7.0248e-06, No Iterations 1
DICPCG:  Solving for p, Initial residual = 0.00291804, Final residual = 0.000143273, No Iterations 85
time step continuity errors : sum local = 1.93239e-11, global = 3.63574e-16, cumulative = 4.93135e-12
DICPCG:  Solving for p, Initial residual = 0.00207696, Final residual = 9.57478e-07, No Iterations 387
time step continuity errors : sum local = 1.28997e-13, global = 1.08574e-16, cumulative = 4.93146e-12
ExecutionTime = 94.04 s  ClockTime = 94 s

Time = 1.06

Courant Number mean: 0.00140618 max: 0.0282889
smoothSolver:  Solving for Ux, Initial residual = 0.000152625, Final residual = 4.09262e-06, No Iterations 1
smoothSolver:  Solving for Uy, Initial residual = 0.000563309, Final residual = 6.96318e-06, No Iterations 1
DICPCG:  Solving for p, Initial residual = 0.00290873, Final residual = 0.000142846, No Iterations 85
time step continuity errors : sum local = 1.92194e-11, global = 4.01114e-16, cumulative = 4.93186e-12
DICPCG:  Solving for p, Initial residual = 0.00206682, Final residual = 9.23326e-07, No Iterations 387
time step continuity errors : sum local = 1.24094e-13, global = 1.07297e-16, cumulative = 4.93196e-12
ExecutionTime = 94.88 s  ClockTime = 95 s

Time = 1.07

Courant Number mean: 0.00140613 max: 0.0282459
smoothSolver:  Solving for Ux, Initial residual = 0.000151263, Final residual = 4.04633e-06, No Iterations 1
smoothSolver:  Solving for Uy, Initial residual = 0.000559954, Final residual = 6.90243e-06, No Iterations 1
DICPCG:  Solving for p, Initial residual = 0.00288645, Final residual = 0.000141456, No Iterations 85
time step continuity errors : sum local = 1.89865e-11, global = 4.17517e-16, cumulative = 4.93238e-12
DICPCG:  Solving for p, Initial residual = 0.00205444, Final residual = 9.45342e-07, No Iterations 387
time step continuity errors : sum local = 1.26749e-13, global = 1.20416e-16, cumulative = 4.9325e-12
ExecutionTime = 95.72 s  ClockTime = 96 s

Time = 1.08

Courant Number mean: 0.00140608 max: 0.0282029
smoothSolver:  Solving for Ux, Initial residual = 0.000149925, Final residual = 4.00101e-06, No Iterations 1
smoothSolver:  Solving for Uy, Initial residual = 0.000556647, Final residual = 6.84262e-06, No Iterations 1
DICPCG:  Solving for p, Initial residual = 0.00290983, Final residual = 0.000142038, No Iterations 85
time step continuity errors : sum local = 1.90188e-11, global = 5.34252e-16, cumulative = 4.93304e-12
DICPCG:  Solving for p, Initial residual = 0.00204685, Final residual = 9.39586e-07, No Iterations 387
time step continuity errors : sum local = 1.25673e-13, global = 1.30969e-16, cumulative = 4.93317e-12
ExecutionTime = 96.55 s  ClockTime = 97 s

Time = 1.09

Courant Number mean: 0.00140604 max: 0.02816
smoothSolver:  Solving for Ux, Initial residual = 0.000148609, Final residual = 3.95659e-06, No Iterations 1
smoothSolver:  Solving for Uy, Initial residual = 0.000553417, Final residual = 6.78391e-06, No Iterations 1
[...]
ExecutionTime = 3509.28 s  ClockTime = 3511 s

Time = 39.74

Courant Number mean: 0.00137527 max: 0.0135452
smoothSolver:  Solving for Ux, Initial residual = 4.17565e-06, Final residual = 4.17565e-06, No Iterations 0
smoothSolver:  Solving for Uy, Initial residual = 3.57196e-05, Final residual = 1.3457e-07, No Iterations 1
DICPCG:  Solving for p, Initial residual = 0.000750628, Final residual = 3.71753e-05, No Iterations 170
time step continuity errors : sum local = 1.63828e-12, global = 2.33332e-13, cumulative = 6.04586e-10
DICPCG:  Solving for p, Initial residual = 0.000755443, Final residual = 9.92603e-07, No Iterations 396
time step continuity errors : sum local = 4.37279e-14, global = -1.72603e-16, cumulative = 6.04586e-10
ExecutionTime = 3510.27 s  ClockTime = 3512 s

Time = 39.75

Courant Number mean: 0.00137527 max: 0.0135442
smoothSolver:  Solving for Ux, Initial residual = 4.17492e-06, Final residual = 4.17492e-06, No Iterations 0
smoothSolver:  Solving for Uy, Initial residual = 3.57147e-05, Final residual = 1.3453e-07, No Iterations 1
DICPCG:  Solving for p, Initial residual = 0.000750741, Final residual = 3.71799e-05, No Iterations 170
time step continuity errors : sum local = 1.63841e-12, global = 2.33328e-13, cumulative = 6.04819e-10
DICPCG:  Solving for p, Initial residual = 0.000755274, Final residual = 9.9408e-07, No Iterations 396
time step continuity errors : sum local = 4.37912e-14, global = -1.72282e-16, cumulative = 6.04819e-10
ExecutionTime = 3511.24 s  ClockTime = 3513 s

Time = 39.76

Courant Number mean: 0.00137526 max: 0.0135432
smoothSolver:  Solving for Ux, Initial residual = 4.17419e-06, Final residual = 4.17419e-06, No Iterations 0
smoothSolver:  Solving for Uy, Initial residual = 3.57098e-05, Final residual = 1.3449e-07, No Iterations 1
DICPCG:  Solving for p, Initial residual = 0.000751034, Final residual = 3.71926e-05, No Iterations 170
time step continuity errors : sum local = 1.63891e-12, global = 2.33331e-13, cumulative = 6.05053e-10
DICPCG:  Solving for p, Initial residual = 0.000755105, Final residual = 9.722e-07, No Iterations 396
time step continuity errors : sum local = 4.28255e-14, global = -1.71739e-16, cumulative = 6.05052e-10
ExecutionTime = 3512.22 s  ClockTime = 3514 s

Time = 39.77

Courant Number mean: 0.00137526 max: 0.0135422
smoothSolver:  Solving for Ux, Initial residual = 4.17347e-06, Final residual = 4.17347e-06, No Iterations 0
smoothSolver:  Solving for Uy, Initial residual = 3.57048e-05, Final residual = 1.34449e-07, No Iterations 1
DICPCG:  Solving for p, Initial residual = 0.000751973, Final residual = 3.72586e-05, No Iterations 170
time step continuity errors : sum local = 1.64175e-12, global = 2.33361e-13, cumulative = 6.05286e-10
DICPCG:  Solving for p, Initial residual = 0.000754976, Final residual = 9.66631e-07, No Iterations 396
time step continuity errors : sum local = 4.25785e-14, global = -1.78587e-16, cumulative = 6.05286e-10
ExecutionTime = 3513.19 s  ClockTime = 3514 s

Time = 39.78

Courant Number mean: 0.00137526 max: 0.0135412
smoothSolver:  Solving for Ux, Initial residual = 4.17276e-06, Final residual = 4.17276e-06, No Iterations 0
smoothSolver:  Solving for Uy, Initial residual = 3.56998e-05, Final residual = 1.34409e-07, No Iterations 1
DICPCG:  Solving for p, Initial residual = 0.000754711, Final residual = 3.74709e-05, No Iterations 170
time step continuity errors : sum local = 1.65104e-12, global = 2.33463e-13, cumulative = 6.05519e-10
DICPCG:  Solving for p, Initial residual = 0.000754924, Final residual = 9.96258e-07, No Iterations 396
time step continuity errors : sum local = 4.38821e-14, global = -1.72629e-16, cumulative = 6.05519e-10
ExecutionTime = 3514.17 s  ClockTime = 3515 s

Time = 39.79

Courant Number mean: 0.00137525 max: 0.0135402
smoothSolver:  Solving for Ux, Initial residual = 4.17211e-06, Final residual = 4.17211e-06, No Iterations 0
smoothSolver:  Solving for Uy, Initial residual = 3.56944e-05, Final residual = 1.3437e-07, No Iterations 1
DICPCG:  Solving for p, Initial residual = 0.000762108, Final residual = 3.77277e-05, No Iterations 170
time step continuity errors : sum local = 1.66227e-12, global = 2.32612e-13, cumulative = 6.05751e-10
DICPCG:  Solving for p, Initial residual = 0.000755191, Final residual = 9.75403e-07, No Iterations 396
time step continuity errors : sum local = 4.29605e-14, global = -1.73518e-16, cumulative = 6.05751e-10
ExecutionTime = 3515.14 s  ClockTime = 3516 s

Time = 39.8

Courant Number mean: 0.00137525 max: 0.0135393
smoothSolver:  Solving for Ux, Initial residual = 4.17121e-06, Final residual = 4.17121e-06, No Iterations 0
smoothSolver:  Solving for Uy, Initial residual = 3.56912e-05, Final residual = 1.34336e-07, No Iterations 1
DICPCG:  Solving for p, Initial residual = 0.000751636, Final residual = 3.72656e-05, No Iterations 170
time step continuity errors : sum local = 1.64182e-12, global = 2.33153e-13, cumulative = 6.05984e-10
DICPCG:  Solving for p, Initial residual = 0.000754574, Final residual = 9.56002e-07, No Iterations 396
time step continuity errors : sum local = 4.21041e-14, global = -1.751e-16, cumulative = 6.05984e-10
ExecutionTime = 3516.12 s  ClockTime = 3517 s

Time = 39.81

Courant Number mean: 0.00137525 max: 0.0135383
smoothSolver:  Solving for Ux, Initial residual = 4.17048e-06, Final residual = 4.17048e-06, No Iterations 0
smoothSolver:  Solving for Uy, Initial residual = 3.56866e-05, Final residual = 1.343e-07, No Iterations 1
DICPCG:  Solving for p, Initial residual = 0.000751469, Final residual = 3.74079e-05, No Iterations 170
time step continuity errors : sum local = 1.64802e-12, global = 2.33225e-13, cumulative = 6.06217e-10
DICPCG:  Solving for p, Initial residual = 0.000754444, Final residual = 9.95569e-07, No Iterations 396
time step continuity errors : sum local = 4.38449e-14, global = -1.71977e-16, cumulative = 6.06217e-10
ExecutionTime = 3517.09 s  ClockTime = 3518 s

Time = 39.82

Courant Number mean: 0.00137524 max: 0.0135373
smoothSolver:  Solving for Ux, Initial residual = 4.16976e-06, Final residual = 4.16976e-06, No Iterations 0
smoothSolver:  Solving for Uy, Initial residual = 3.56817e-05, Final residual = 1.34261e-07, No Iterations 1
DICPCG:  Solving for p, Initial residual = 0.000748563, Final residual = 3.71777e-05, No Iterations 170
time step continuity errors : sum local = 1.6378e-12, global = 2.33177e-13, cumulative = 6.0645e-10
DICPCG:  Solving for p, Initial residual = 0.000754259, Final residual = 9.51958e-07, No Iterations 396
time step continuity errors : sum local = 4.19223e-14, global = -1.77514e-16, cumulative = 6.0645e-10
ExecutionTime = 3518.06 s  ClockTime = 3519 s

Time = 39.83

Courant Number mean: 0.00137524 max: 0.0135363
smoothSolver:  Solving for Ux, Initial residual = 4.16903e-06, Final residual = 4.16903e-06, No Iterations 0
smoothSolver:  Solving for Uy, Initial residual = 3.5677e-05, Final residual = 1.34222e-07, No Iterations 1
DICPCG:  Solving for p, Initial residual = 0.000756257, Final residual = 3.72458e-05, No Iterations 171
time step continuity errors : sum local = 1.64071e-12, global = 2.34986e-13, cumulative = 6.06685e-10
DICPCG:  Solving for p, Initial residual = 0.0007541, Final residual = 9.08739e-07, No Iterations 397
time step continuity errors : sum local = 4.00166e-14, global = -1.50478e-16, cumulative = 6.06685e-10
ExecutionTime = 3519.04 s  ClockTime = 3520 s

Time = 39.84

Courant Number mean: 0.00137524 max: 0.0135353
smoothSolver:  Solving for Ux, Initial residual = 4.16823e-06, Final residual = 4.16823e-06, No Iterations 0
smoothSolver:  Solving for Uy, Initial residual = 3.56725e-05, Final residual = 1.34185e-07, No Iterations 1
DICPCG:  Solving for p, Initial residual = 0.000749485, Final residual = 3.72909e-05, No Iterations 170
time step continuity errors : sum local = 1.64261e-12, global = 2.33144e-13, cumulative = 6.06918e-10
DICPCG:  Solving for p, Initial residual = 0.000753962, Final residual = 9.64088e-07, No Iterations 396
time step continuity errors : sum local = 4.2452e-14, global = -1.74707e-16, cumulative = 6.06918e-10
ExecutionTime = 3520.01 s  ClockTime = 3521 s

Time = 39.85

Courant Number mean: 0.00137523 max: 0.0135343
smoothSolver:  Solving for Ux, Initial residual = 4.16749e-06, Final residual = 4.16749e-06, No Iterations 0
smoothSolver:  Solving for Uy, Initial residual = 3.5668e-05, Final residual = 1.34143e-07, No Iterations 1
DICPCG:  Solving for p, Initial residual = 0.000747845, Final residual = 3.71814e-05, No Iterations 170
time step continuity errors : sum local = 1.63772e-12, global = 2.33141e-13, cumulative = 6.07151e-10
DICPCG:  Solving for p, Initial residual = 0.000753805, Final residual = 9.70213e-07, No Iterations 396
time step continuity errors : sum local = 4.27198e-14, global = -1.74153e-16, cumulative = 6.07151e-10
ExecutionTime = 3520.99 s  ClockTime = 3522 s

Time = 39.86

Courant Number mean: 0.00137523 max: 0.0135333
smoothSolver:  Solving for Ux, Initial residual = 4.16676e-06, Final residual = 4.16676e-06, No Iterations 0
smoothSolver:  Solving for Uy, Initial residual = 3.56631e-05, Final residual = 1.34104e-07, No Iterations 1
DICPCG:  Solving for p, Initial residual = 0.000751531, Final residual = 3.71956e-05, No Iterations 170
time step continuity errors : sum local = 1.63826e-12, global = 2.32976e-13, cumulative = 6.07384e-10
DICPCG:  Solving for p, Initial residual = 0.000753625, Final residual = 9.88174e-07, No Iterations 396
time step continuity errors : sum local = 4.35084e-14, global = -1.72183e-16, cumulative = 6.07384e-10
ExecutionTime = 3521.97 s  ClockTime = 3523 s

Time = 39.87

Courant Number mean: 0.00137523 max: 0.0135323
smoothSolver:  Solving for Ux, Initial residual = 4.16603e-06, Final residual = 4.16603e-06, No Iterations 0
smoothSolver:  Solving for Uy, Initial residual = 3.56587e-05, Final residual = 1.34071e-07, No Iterations 1
DICPCG:  Solving for p, Initial residual = 0.000752875, Final residual = 3.71617e-05, No Iterations 170
time step continuity errors : sum local = 1.63668e-12, global = 2.32908e-13, cumulative = 6.07617e-10
DICPCG:  Solving for p, Initial residual = 0.000753489, Final residual = 9.86948e-07, No Iterations 396
time step continuity errors : sum local = 4.3452e-14, global = -1.80279e-16, cumulative = 6.07617e-10
ExecutionTime = 3522.94 s  ClockTime = 3524 s

Time = 39.88

Courant Number mean: 0.00137523 max: 0.0135313
smoothSolver:  Solving for Ux, Initial residual = 4.16531e-06, Final residual = 4.16531e-06, No Iterations 0
smoothSolver:  Solving for Uy, Initial residual = 3.56545e-05, Final residual = 1.34041e-07, No Iterations 1
DICPCG:  Solving for p, Initial residual = 0.000747722, Final residual = 3.71873e-05, No Iterations 170
time step continuity errors : sum local = 1.63773e-12, global = 2.33121e-13, cumulative = 6.0785e-10
DICPCG:  Solving for p, Initial residual = 0.000753457, Final residual = 9.92236e-07, No Iterations 396
time step continuity errors : sum local = 4.36829e-14, global = -1.72863e-16, cumulative = 6.0785e-10
ExecutionTime = 3523.92 s  ClockTime = 3525 s

Time = 39.89

Courant Number mean: 0.00137522 max: 0.0135303
smoothSolver:  Solving for Ux, Initial residual = 4.16458e-06, Final residual = 4.16458e-06, No Iterations 0
smoothSolver:  Solving for Uy, Initial residual = 3.56496e-05, Final residual = 1.34e-07, No Iterations 1
DICPCG:  Solving for p, Initial residual = 0.000747513, Final residual = 3.71857e-05, No Iterations 170
time step continuity errors : sum local = 1.63758e-12, global = 2.33113e-13, cumulative = 6.08083e-10
DICPCG:  Solving for p, Initial residual = 0.000753286, Final residual = 9.98007e-07, No Iterations 396
time step continuity errors : sum local = 4.3935e-14, global = -1.72175e-16, cumulative = 6.08082e-10
ExecutionTime = 3524.89 s  ClockTime = 3526 s

Time = 39.9

Courant Number mean: 0.00137522 max: 0.0135293
smoothSolver:  Solving for Ux, Initial residual = 4.16385e-06, Final residual = 4.16385e-06, No Iterations 0
smoothSolver:  Solving for Uy, Initial residual = 3.56447e-05, Final residual = 1.33959e-07, No Iterations 1
DICPCG:  Solving for p, Initial residual = 0.000747529, Final residual = 3.71912e-05, No Iterations 170
time step continuity errors : sum local = 1.63775e-12, global = 2.33098e-13, cumulative = 6.08316e-10
DICPCG:  Solving for p, Initial residual = 0.000753122, Final residual = 9.94066e-07, No Iterations 396
time step continuity errors : sum local = 4.37595e-14, global = -1.72747e-16, cumulative = 6.08315e-10
ExecutionTime = 3525.87 s  ClockTime = 3527 s

Time = 39.91

Courant Number mean: 0.00137522 max: 0.0135283
smoothSolver:  Solving for Ux, Initial residual = 4.16313e-06, Final residual = 4.16313e-06, No Iterations 0
smoothSolver:  Solving for Uy, Initial residual = 3.56398e-05, Final residual = 1.33919e-07, No Iterations 1
DICPCG:  Solving for p, Initial residual = 0.000748564, Final residual = 3.7253e-05, No Iterations 170
time step continuity errors : sum local = 1.6404e-12, global = 2.33119e-13, cumulative = 6.08549e-10
DICPCG:  Solving for p, Initial residual = 0.00075301, Final residual = 9.76656e-07, No Iterations 396
time step continuity errors : sum local = 4.29913e-14, global = -1.78287e-16, cumulative = 6.08548e-10
ExecutionTime = 3526.85 s  ClockTime = 3528 s

Time = 39.92

Courant Number mean: 0.00137521 max: 0.0135273
smoothSolver:  Solving for Ux, Initial residual = 4.16243e-06, Final residual = 4.16243e-06, No Iterations 0
smoothSolver:  Solving for Uy, Initial residual = 3.56347e-05, Final residual = 1.33879e-07, No Iterations 1
DICPCG:  Solving for p, Initial residual = 0.000748682, Final residual = 3.72545e-05, No Iterations 170
time step continuity errors : sum local = 1.6404e-12, global = 2.33004e-13, cumulative = 6.08781e-10
DICPCG:  Solving for p, Initial residual = 0.000752859, Final residual = 9.99054e-07, No Iterations 396
time step continuity errors : sum local = 4.39751e-14, global = -1.72801e-16, cumulative = 6.08781e-10
ExecutionTime = 3527.82 s  ClockTime = 3529 s

Time = 39.93

Courant Number mean: 0.00137521 max: 0.0135263
smoothSolver:  Solving for Ux, Initial residual = 4.16166e-06, Final residual = 4.16166e-06, No Iterations 0
smoothSolver:  Solving for Uy, Initial residual = 3.56301e-05, Final residual = 1.33839e-07, No Iterations 1
DICPCG:  Solving for p, Initial residual = 0.000747249, Final residual = 3.71888e-05, No Iterations 170
time step continuity errors : sum local = 1.63742e-12, global = 2.3304e-13, cumulative = 6.09014e-10
DICPCG:  Solving for p, Initial residual = 0.00075263, Final residual = 9.81056e-07, No Iterations 396
time step continuity errors : sum local = 4.3181e-14, global = -1.7373e-16, cumulative = 6.09014e-10
ExecutionTime = 3528.79 s  ClockTime = 3530 s

Time = 39.94

Courant Number mean: 0.00137521 max: 0.0135253
smoothSolver:  Solving for Ux, Initial residual = 4.16093e-06, Final residual = 4.16093e-06, No Iterations 0
smoothSolver:  Solving for Uy, Initial residual = 3.56253e-05, Final residual = 1.33799e-07, No Iterations 1
DICPCG:  Solving for p, Initial residual = 0.000747037, Final residual = 3.7195e-05, No Iterations 170
time step continuity errors : sum local = 1.63762e-12, global = 2.33032e-13, cumulative = 6.09247e-10
DICPCG:  Solving for p, Initial residual = 0.000752473, Final residual = 9.88709e-07, No Iterations 396
time step continuity errors : sum local = 4.35159e-14, global = -1.80877e-16, cumulative = 6.09247e-10
ExecutionTime = 3529.78 s  ClockTime = 3531 s

Time = 39.95

Courant Number mean: 0.0013752 max: 0.0135243
smoothSolver:  Solving for Ux, Initial residual = 4.1602e-06, Final residual = 4.1602e-06, No Iterations 0
smoothSolver:  Solving for Uy, Initial residual = 3.56206e-05, Final residual = 1.33759e-07, No Iterations 1
DICPCG:  Solving for p, Initial residual = 0.000747454, Final residual = 3.72406e-05, No Iterations 170
time step continuity errors : sum local = 1.63956e-12, global = 2.33032e-13, cumulative = 6.0948e-10
DICPCG:  Solving for p, Initial residual = 0.000752319, Final residual = 9.12558e-07, No Iterations 397
time step continuity errors : sum local = 4.01625e-14, global = -1.51646e-16, cumulative = 6.0948e-10
ExecutionTime = 3530.76 s  ClockTime = 3532 s

Time = 39.96

Courant Number mean: 0.0013752 max: 0.0135233
smoothSolver:  Solving for Ux, Initial residual = 4.15947e-06, Final residual = 4.15947e-06, No Iterations 0
smoothSolver:  Solving for Uy, Initial residual = 3.56158e-05, Final residual = 1.3372e-07, No Iterations 1
DICPCG:  Solving for p, Initial residual = 0.000747497, Final residual = 3.72469e-05, No Iterations 170
time step continuity errors : sum local = 1.63977e-12, global = 2.32979e-13, cumulative = 6.09713e-10
DICPCG:  Solving for p, Initial residual = 0.000752165, Final residual = 9.59045e-07, No Iterations 396
time step continuity errors : sum local = 4.22065e-14, global = -1.78378e-16, cumulative = 6.09713e-10
ExecutionTime = 3531.73 s  ClockTime = 3533 s

Time = 39.97

Courant Number mean: 0.0013752 max: 0.0135224
smoothSolver:  Solving for Ux, Initial residual = 4.15875e-06, Final residual = 4.15875e-06, No Iterations 0
smoothSolver:  Solving for Uy, Initial residual = 3.5611e-05, Final residual = 1.3368e-07, No Iterations 1
DICPCG:  Solving for p, Initial residual = 0.000747028, Final residual = 3.72225e-05, No Iterations 170
time step continuity errors : sum local = 1.63861e-12, global = 2.32964e-13, cumulative = 6.09946e-10
DICPCG:  Solving for p, Initial residual = 0.000751999, Final residual = 9.98154e-07, No Iterations 396
time step continuity errors : sum local = 4.39256e-14, global = -1.72102e-16, cumulative = 6.09945e-10
ExecutionTime = 3532.7 s  ClockTime = 3534 s

Time = 39.98

Courant Number mean: 0.00137519 max: 0.0135214
smoothSolver:  Solving for Ux, Initial residual = 4.15802e-06, Final residual = 4.15802e-06, No Iterations 0
smoothSolver:  Solving for Uy, Initial residual = 3.56059e-05, Final residual = 1.33641e-07, No Iterations 1
DICPCG:  Solving for p, Initial residual = 0.000746239, Final residual = 3.71961e-05, No Iterations 170
time step continuity errors : sum local = 1.63738e-12, global = 2.32974e-13, cumulative = 6.10178e-10
DICPCG:  Solving for p, Initial residual = 0.000751836, Final residual = 9.60546e-07, No Iterations 396
time step continuity errors : sum local = 4.22687e-14, global = -1.78661e-16, cumulative = 6.10178e-10
ExecutionTime = 3533.67 s  ClockTime = 3535 s

Time = 39.99

Courant Number mean: 0.00137519 max: 0.0135204
smoothSolver:  Solving for Ux, Initial residual = 4.15729e-06, Final residual = 4.15729e-06, No Iterations 0
smoothSolver:  Solving for Uy, Initial residual = 3.56011e-05, Final residual = 1.33602e-07, No Iterations 1
DICPCG:  Solving for p, Initial residual = 0.000746097, Final residual = 3.71982e-05, No Iterations 170
time step continuity errors : sum local = 1.6374e-12, global = 2.32959e-13, cumulative = 6.10411e-10
DICPCG:  Solving for p, Initial residual = 0.000751681, Final residual = 9.97561e-07, No Iterations 396
time step continuity errors : sum local = 4.38956e-14, global = -1.73069e-16, cumulative = 6.10411e-10
ExecutionTime = 3534.65 s  ClockTime = 3536 s

Time = 40

Courant Number mean: 0.00137519 max: 0.0135194
smoothSolver:  Solving for Ux, Initial residual = 4.15656e-06, Final residual = 4.15656e-06, No Iterations 0
smoothSolver:  Solving for Uy, Initial residual = 3.55963e-05, Final residual = 1.33562e-07, No Iterations 1
DICPCG:  Solving for p, Initial residual = 0.000745963, Final residual = 3.71962e-05, No Iterations 170
time step continuity errors : sum local = 1.63723e-12, global = 2.32948e-13, cumulative = 6.10644e-10
DICPCG:  Solving for p, Initial residual = 0.000751518, Final residual = 9.62658e-07, No Iterations 396
time step continuity errors : sum local = 4.23579e-14, global = -1.75662e-16, cumulative = 6.10644e-10
ExecutionTime = 3536.28 s  ClockTime = 3538 s

End

