/*---------------------------------------------------------------------------*\
  =========                 |
  \\      /  F ield         | OpenFOAM: The Open Source CFD Toolbox
   \\    /   O peration     | Website:  https://openfoam.org
    \\  /    A nd           | Version:  7
     \\/     M anipulation  |
\*---------------------------------------------------------------------------*/
Build  : 7-49b2b3b8b082
Exec   : icoFoam
Date   : May 14 2021
Time   : 21:21:29
Host   : "c401-022.stampede2.tacc.utexas.edu"
PID    : 79915
I/O    : uncollated
Case   : /work2/06781/jpborsos/stampede2/coe347/Final_Project/COE347/finalProject/results/testing_turbulence/box05
nProcs : 1
sigFpe : Enabling floating point exception trapping (FOAM_SIGFPE).
fileModificationChecking : Monitoring run-time modified files using timeStampMaster (fileModificationSkew 10)
allowSystemOperations : Allowing user-supplied system call operations

// * * * * * * * * * * * * * * * * * * * * * * * * * * * * * * * * * * * * * //
Create time

Create mesh for time = 0

Reading transportProperties

Reading field p

Reading field U

Reading/calculating face flux field phi


Starting time loop

Time = 0.05

Courant Number mean: 0.00376822 max: 0.0613553
smoothSolver:  Solving for Ux, Initial residual = 1, Final residual = 4.46526e-06, No Iterations 7
smoothSolver:  Solving for Uy, Initial residual = 0, Final residual = 0, No Iterations 0
DICPCG:  Solving for p, Initial residual = 1, Final residual = 0.0486916, No Iterations 190
time step continuity errors : sum local = 1.27257e-07, global = 2.40961e-09, cumulative = 2.40961e-09
DICPCG:  Solving for p, Initial residual = 0.166013, Final residual = 9.97971e-07, No Iterations 259
time step continuity errors : sum local = 1.92638e-11, global = 1.32592e-13, cumulative = 2.40974e-09
ExecutionTime = 0.41 s  ClockTime = 1 s

Time = 0.1

Courant Number mean: 0.00380258 max: 0.108376
smoothSolver:  Solving for Ux, Initial residual = 0.28357, Final residual = 3.7502e-06, No Iterations 5
smoothSolver:  Solving for Uy, Initial residual = 0.287971, Final residual = 9.52596e-06, No Iterations 4
DICPCG:  Solving for p, Initial residual = 0.169663, Final residual = 0.00829886, No Iterations 188
time step continuity errors : sum local = 1.64434e-07, global = -2.27409e-09, cumulative = 1.35652e-10
DICPCG:  Solving for p, Initial residual = 0.512756, Final residual = 9.28266e-07, No Iterations 266
time step continuity errors : sum local = 5.83791e-12, global = 6.21574e-14, cumulative = 1.35714e-10
ExecutionTime = 0.59 s  ClockTime = 1 s

Time = 0.15

Courant Number mean: 0.0038031 max: 0.0987271
smoothSolver:  Solving for Ux, Initial residual = 0.0111939, Final residual = 5.70281e-06, No Iterations 4
smoothSolver:  Solving for Uy, Initial residual = 0.006562, Final residual = 5.51371e-06, No Iterations 3
DICPCG:  Solving for p, Initial residual = 0.373894, Final residual = 0.0172129, No Iterations 62
time step continuity errors : sum local = 4.51695e-08, global = -2.69439e-10, cumulative = -1.33725e-10
DICPCG:  Solving for p, Initial residual = 0.0949956, Final residual = 9.05167e-07, No Iterations 247
time step continuity errors : sum local = 2.03666e-12, global = 4.06463e-14, cumulative = -1.33684e-10
ExecutionTime = 0.72 s  ClockTime = 1 s

Time = 0.2

Courant Number mean: 0.00379948 max: 0.0873808
smoothSolver:  Solving for Ux, Initial residual = 0.0131123, Final residual = 3.66856e-06, No Iterations 4
smoothSolver:  Solving for Uy, Initial residual = 0.0111057, Final residual = 3.07683e-06, No Iterations 3
DICPCG:  Solving for p, Initial residual = 0.112192, Final residual = 0.00515165, No Iterations 58
time step continuity errors : sum local = 1.18036e-08, global = 4.17321e-11, cumulative = -9.19519e-11
DICPCG:  Solving for p, Initial residual = 0.0241603, Final residual = 9.59709e-07, No Iterations 227
time step continuity errors : sum local = 2.08952e-12, global = 2.03382e-14, cumulative = -9.19316e-11
ExecutionTime = 0.84 s  ClockTime = 1 s

Time = 0.25

Courant Number mean: 0.00379664 max: 0.0827681
smoothSolver:  Solving for Ux, Initial residual = 0.00757917, Final residual = 2.20446e-06, No Iterations 4
smoothSolver:  Solving for Uy, Initial residual = 0.00864724, Final residual = 2.52411e-06, No Iterations 3
DICPCG:  Solving for p, Initial residual = 0.0762433, Final residual = 0.00379143, No Iterations 51
time step continuity errors : sum local = 7.76498e-09, global = -2.93776e-12, cumulative = -9.48693e-11
DICPCG:  Solving for p, Initial residual = 0.0128834, Final residual = 8.91906e-07, No Iterations 222
time step continuity errors : sum local = 1.78872e-12, global = 2.12811e-14, cumulative = -9.48481e-11
ExecutionTime = 0.96 s  ClockTime = 1 s

Time = 0.3

Courant Number mean: 0.00379419 max: 0.0808501
smoothSolver:  Solving for Ux, Initial residual = 0.00528178, Final residual = 7.76131e-06, No Iterations 3
smoothSolver:  Solving for Uy, Initial residual = 0.00736031, Final residual = 2.1272e-06, No Iterations 3
DICPCG:  Solving for p, Initial residual = 0.0582395, Final residual = 0.00280992, No Iterations 53
time step continuity errors : sum local = 5.47176e-09, global = -7.25706e-13, cumulative = -9.55738e-11
DICPCG:  Solving for p, Initial residual = 0.00931751, Final residual = 9.7435e-07, No Iterations 220
time step continuity errors : sum local = 1.87116e-12, global = 1.85339e-15, cumulative = -9.55719e-11
ExecutionTime = 1.08 s  ClockTime = 1 s

Time = 0.35

Courant Number mean: 0.00379204 max: 0.079174
smoothSolver:  Solving for Ux, Initial residual = 0.00400524, Final residual = 5.7424e-06, No Iterations 3
smoothSolver:  Solving for Uy, Initial residual = 0.0064384, Final residual = 1.8397e-06, No Iterations 3
DICPCG:  Solving for p, Initial residual = 0.0469249, Final residual = 0.00227726, No Iterations 52
time step continuity errors : sum local = 4.27902e-09, global = -9.77063e-13, cumulative = -9.6549e-11
DICPCG:  Solving for p, Initial residual = 0.00709606, Final residual = 9.88431e-07, No Iterations 218
time step continuity errors : sum local = 1.84009e-12, global = -6.20553e-15, cumulative = -9.65552e-11
ExecutionTime = 1.2 s  ClockTime = 1 s

Time = 0.4

Courant Number mean: 0.00379011 max: 0.0774451
smoothSolver:  Solving for Ux, Initial residual = 0.00321377, Final residual = 4.46494e-06, No Iterations 3
smoothSolver:  Solving for Uy, Initial residual = 0.0057543, Final residual = 9.81858e-06, No Iterations 2
DICPCG:  Solving for p, Initial residual = 0.0385977, Final residual = 0.00192679, No Iterations 51
time step continuity errors : sum local = 3.53131e-09, global = -6.30724e-13, cumulative = -9.71859e-11
DICPCG:  Solving for p, Initial residual = 0.00575454, Final residual = 9.5447e-07, No Iterations 217
time step continuity errors : sum local = 1.73873e-12, global = -4.99748e-15, cumulative = -9.71909e-11
ExecutionTime = 1.31 s  ClockTime = 2 s

Time = 0.45

Courant Number mean: 0.00378837 max: 0.0757139
smoothSolver:  Solving for Ux, Initial residual = 0.00268659, Final residual = 3.59764e-06, No Iterations 3
smoothSolver:  Solving for Uy, Initial residual = 0.00522568, Final residual = 8.77139e-06, No Iterations 2
DICPCG:  Solving for p, Initial residual = 0.0329415, Final residual = 0.00159083, No Iterations 51
time step continuity errors : sum local = 2.86138e-09, global = -4.56213e-13, cumulative = -9.76471e-11
DICPCG:  Solving for p, Initial residual = 0.00472963, Final residual = 9.50854e-07, No Iterations 216
time step continuity errors : sum local = 1.70171e-12, global = -6.05826e-15, cumulative = -9.76532e-11
ExecutionTime = 1.42 s  ClockTime = 2 s

Time = 0.5

Courant Number mean: 0.00378677 max: 0.0740589
smoothSolver:  Solving for Ux, Initial residual = 0.00230972, Final residual = 2.97708e-06, No Iterations 3
smoothSolver:  Solving for Uy, Initial residual = 0.00480524, Final residual = 7.90543e-06, No Iterations 2
DICPCG:  Solving for p, Initial residual = 0.0281519, Final residual = 0.00137956, No Iterations 50
time step continuity errors : sum local = 2.44198e-09, global = -3.41203e-13, cumulative = -9.79944e-11
DICPCG:  Solving for p, Initial residual = 0.00403555, Final residual = 9.42847e-07, No Iterations 215
time step continuity errors : sum local = 1.66128e-12, global = -7.7016e-15, cumulative = -9.80021e-11
ExecutionTime = 1.53 s  ClockTime = 2 s

Time = 0.55

Courant Number mean: 0.00378528 max: 0.0725637
smoothSolver:  Solving for Ux, Initial residual = 0.00202663, Final residual = 2.51517e-06, No Iterations 3
smoothSolver:  Solving for Uy, Initial residual = 0.00446405, Final residual = 7.17195e-06, No Iterations 2
DICPCG:  Solving for p, Initial residual = 0.0240597, Final residual = 0.00118032, No Iterations 50
time step continuity errors : sum local = 2.06045e-09, global = -2.53742e-13, cumulative = -9.82558e-11
DICPCG:  Solving for p, Initial residual = 0.00347064, Final residual = 9.85275e-07, No Iterations 214
time step continuity errors : sum local = 1.7132e-12, global = -7.94389e-15, cumulative = -9.82638e-11
ExecutionTime = 1.64 s  ClockTime = 2 s

Time = 0.6

Courant Number mean: 0.0037839 max: 0.0711356
smoothSolver:  Solving for Ux, Initial residual = 0.00180669, Final residual = 2.16121e-06, No Iterations 3
smoothSolver:  Solving for Uy, Initial residual = 0.00417803, Final residual = 6.54202e-06, No Iterations 2
DICPCG:  Solving for p, Initial residual = 0.0209861, Final residual = 0.00102422, No Iterations 50
time step continuity errors : sum local = 1.76585e-09, global = -2.25733e-13, cumulative = -9.84895e-11
DICPCG:  Solving for p, Initial residual = 0.00302585, Final residual = 8.61698e-07, No Iterations 214
time step continuity errors : sum local = 1.47982e-12, global = -6.25303e-15, cumulative = -9.84957e-11
ExecutionTime = 1.76 s  ClockTime = 2 s

Time = 0.65

Courant Number mean: 0.00378259 max: 0.0697806
smoothSolver:  Solving for Ux, Initial residual = 0.00163092, Final residual = 1.88264e-06, No Iterations 3
smoothSolver:  Solving for Uy, Initial residual = 0.00393568, Final residual = 6.0026e-06, No Iterations 2
DICPCG:  Solving for p, Initial residual = 0.018588, Final residual = 0.000897148, No Iterations 50
time step continuity errors : sum local = 1.5286e-09, global = -2.02498e-13, cumulative = -9.86982e-11
DICPCG:  Solving for p, Initial residual = 0.00266311, Final residual = 9.47466e-07, No Iterations 213
time step continuity errors : sum local = 1.60798e-12, global = -2.46751e-15, cumulative = -9.87007e-11
ExecutionTime = 1.87 s  ClockTime = 2 s

Time = 0.7

Courant Number mean: 0.00378136 max: 0.0684999
smoothSolver:  Solving for Ux, Initial residual = 0.00148728, Final residual = 9.28087e-06, No Iterations 2
smoothSolver:  Solving for Uy, Initial residual = 0.00372725, Final residual = 5.54233e-06, No Iterations 2
DICPCG:  Solving for p, Initial residual = 0.0166663, Final residual = 0.000833181, No Iterations 51
time step continuity errors : sum local = 1.40302e-09, global = -2.28391e-13, cumulative = -9.89291e-11
DICPCG:  Solving for p, Initial residual = 0.00297737, Final residual = 9.25085e-07, No Iterations 213
time step continuity errors : sum local = 1.55119e-12, global = -6.19901e-15, cumulative = -9.89353e-11
ExecutionTime = 1.98 s  ClockTime = 2 s

Time = 0.75

Courant Number mean: 0.00378019 max: 0.0672946
smoothSolver:  Solving for Ux, Initial residual = 0.00136576, Final residual = 8.31871e-06, No Iterations 2
smoothSolver:  Solving for Uy, Initial residual = 0.00353714, Final residual = 5.14422e-06, No Iterations 2
DICPCG:  Solving for p, Initial residual = 0.01511, Final residual = 0.00071295, No Iterations 51
time step continuity errors : sum local = 1.18656e-09, global = -3.12678e-13, cumulative = -9.9248e-11
DICPCG:  Solving for p, Initial residual = 0.00266788, Final residual = 9.75142e-07, No Iterations 212
time step continuity errors : sum local = 1.61594e-12, global = -1.84042e-15, cumulative = -9.92498e-11
ExecutionTime = 2.09 s  ClockTime = 2 s

Time = 0.8

Courant Number mean: 0.00377908 max: 0.0661583
smoothSolver:  Solving for Ux, Initial residual = 0.00126548, Final residual = 7.51092e-06, No Iterations 2
smoothSolver:  Solving for Uy, Initial residual = 0.00337793, Final residual = 4.79199e-06, No Iterations 2
DICPCG:  Solving for p, Initial residual = 0.0139929, Final residual = 0.000698597, No Iterations 50
time step continuity errors : sum local = 1.14977e-09, global = -2.3036e-13, cumulative = -9.94802e-11
DICPCG:  Solving for p, Initial residual = 0.0025309, Final residual = 9.1676e-07, No Iterations 212
time step continuity errors : sum local = 1.50239e-12, global = -2.71642e-15, cumulative = -9.94829e-11
ExecutionTime = 2.2 s  ClockTime = 2 s

Time = 0.85

Courant Number mean: 0.00377801 max: 0.065087
smoothSolver:  Solving for Ux, Initial residual = 0.00117928, Final residual = 6.83019e-06, No Iterations 2
smoothSolver:  Solving for Uy, Initial residual = 0.0032353, Final residual = 4.47677e-06, No Iterations 2
DICPCG:  Solving for p, Initial residual = 0.0129743, Final residual = 0.00064344, No Iterations 50
time step continuity errors : sum local = 1.04728e-09, global = -1.96312e-13, cumulative = -9.96792e-11
DICPCG:  Solving for p, Initial residual = 0.00237308, Final residual = 8.3702e-07, No Iterations 212
time step continuity errors : sum local = 1.35629e-12, global = -1.88101e-15, cumulative = -9.96811e-11
ExecutionTime = 2.31 s  ClockTime = 3 s

Time = 0.9

Courant Number mean: 0.00377699 max: 0.0640762
smoothSolver:  Solving for Ux, Initial residual = 0.0011045, Final residual = 6.24931e-06, No Iterations 2
smoothSolver:  Solving for Uy, Initial residual = 0.0031075, Final residual = 4.19901e-06, No Iterations 2
DICPCG:  Solving for p, Initial residual = 0.0119777, Final residual = 0.000598439, No Iterations 50
time step continuity errors : sum local = 9.62967e-10, global = -1.8297e-13, cumulative = -9.98641e-11
DICPCG:  Solving for p, Initial residual = 0.00221681, Final residual = 9.36533e-07, No Iterations 211
time step continuity errors : sum local = 1.49986e-12, global = 1.42916e-15, cumulative = -9.98626e-11
ExecutionTime = 2.42 s  ClockTime = 3 s

Time = 0.95

Courant Number mean: 0.00377601 max: 0.0631217
smoothSolver:  Solving for Ux, Initial residual = 0.00103896, Final residual = 5.7508e-06, No Iterations 2
smoothSolver:  Solving for Uy, Initial residual = 0.00299154, Final residual = 3.94701e-06, No Iterations 2
DICPCG:  Solving for p, Initial residual = 0.0111074, Final residual = 0.00054636, No Iterations 50
time step continuity errors : sum local = 8.69264e-10, global = -1.66817e-13, cumulative = -1.00029e-10
DICPCG:  Solving for p, Initial residual = 0.00207024, Final residual = 9.67952e-07, No Iterations 210
time step continuity errors : sum local = 1.53298e-12, global = 4.21328e-15, cumulative = -1.00025e-10
ExecutionTime = 2.54 s  ClockTime = 3 s

Time = 1

Courant Number mean: 0.00377506 max: 0.0628469
smoothSolver:  Solving for Ux, Initial residual = 0.000981017, Final residual = 5.31861e-06, No Iterations 2
smoothSolver:  Solving for Uy, Initial residual = 0.00288636, Final residual = 3.72332e-06, No Iterations 2
DICPCG:  Solving for p, Initial residual = 0.0105228, Final residual = 0.00050804, No Iterations 50
time step continuity errors : sum local = 7.99537e-10, global = -1.57765e-13, cumulative = -1.00183e-10
DICPCG:  Solving for p, Initial residual = 0.0019589, Final residual = 9.20713e-07, No Iterations 210
time step continuity errors : sum local = 1.44257e-12, global = 4.18166e-15, cumulative = -1.00179e-10
ExecutionTime = 2.84 s  ClockTime = 3 s

Time = 1.05

Courant Number mean: 0.00377414 max: 0.0626702
smoothSolver:  Solving for Ux, Initial residual = 0.000929394, Final residual = 4.9409e-06, No Iterations 2
smoothSolver:  Solving for Uy, Initial residual = 0.00279012, Final residual = 3.52055e-06, No Iterations 2
DICPCG:  Solving for p, Initial residual = 0.010326, Final residual = 0.000484687, No Iterations 50
time step continuity errors : sum local = 7.54611e-10, global = -1.4525e-13, cumulative = -1.00324e-10
DICPCG:  Solving for p, Initial residual = 0.00188127, Final residual = 9.76412e-07, No Iterations 209
time step continuity errors : sum local = 1.51318e-12, global = 6.98695e-15, cumulative = -1.00317e-10
ExecutionTime = 2.94 s  ClockTime = 3 s

Time = 1.1

Courant Number mean: 0.00377325 max: 0.0624797
smoothSolver:  Solving for Ux, Initial residual = 0.000882927, Final residual = 4.60813e-06, No Iterations 2
smoothSolver:  Solving for Uy, Initial residual = 0.00270195, Final residual = 3.33989e-06, No Iterations 2
DICPCG:  Solving for p, Initial residual = 0.00988612, Final residual = 0.000482792, No Iterations 49
time step continuity errors : sum local = 7.43634e-10, global = -1.11503e-13, cumulative = -1.00429e-10
DICPCG:  Solving for p, Initial residual = 0.00177447, Final residual = 9.31e-07, No Iterations 209
time step continuity errors : sum local = 1.42754e-12, global = 4.28821e-15, cumulative = -1.00424e-10
ExecutionTime = 3.05 s  ClockTime = 3 s

Time = 1.15

Courant Number mean: 0.00377239 max: 0.0622776
smoothSolver:  Solving for Ux, Initial residual = 0.000841112, Final residual = 4.3137e-06, No Iterations 2
smoothSolver:  Solving for Uy, Initial residual = 0.00261956, Final residual = 3.1734e-06, No Iterations 2
DICPCG:  Solving for p, Initial residual = 0.00972026, Final residual = 0.00047284, No Iterations 48
time step continuity errors : sum local = 7.20229e-10, global = -7.884e-14, cumulative = -1.00503e-10
DICPCG:  Solving for p, Initial residual = 0.00173093, Final residual = 8.78444e-07, No Iterations 209
time step continuity errors : sum local = 1.33123e-12, global = 2.09281e-15, cumulative = -1.00501e-10
ExecutionTime = 3.16 s  ClockTime = 3 s

Time = 1.2

Courant Number mean: 0.00377156 max: 0.0620659
smoothSolver:  Solving for Ux, Initial residual = 0.000803077, Final residual = 4.05177e-06, No Iterations 2
smoothSolver:  Solving for Uy, Initial residual = 0.00254326, Final residual = 3.02145e-06, No Iterations 2
DICPCG:  Solving for p, Initial residual = 0.00897265, Final residual = 0.000442841, No Iterations 48
time step continuity errors : sum local = 6.67032e-10, global = -6.09437e-14, cumulative = -1.00562e-10
DICPCG:  Solving for p, Initial residual = 0.00162745, Final residual = 9.73576e-07, No Iterations 208
time step continuity errors : sum local = 1.45966e-12, global = 3.47857e-15, cumulative = -1.00559e-10
ExecutionTime = 3.27 s  ClockTime = 4 s

Time = 1.25

Courant Number mean: 0.00377074 max: 0.0618461
smoothSolver:  Solving for Ux, Initial residual = 0.000768377, Final residual = 3.81709e-06, No Iterations 2
smoothSolver:  Solving for Uy, Initial residual = 0.0024724, Final residual = 2.88325e-06, No Iterations 2
DICPCG:  Solving for p, Initial residual = 0.00863099, Final residual = 0.000419307, No Iterations 48
time step continuity errors : sum local = 6.25001e-10, global = -5.60036e-14, cumulative = -1.00615e-10
DICPCG:  Solving for p, Initial residual = 0.00156044, Final residual = 9.06794e-07, No Iterations 208
time step continuity errors : sum local = 1.34561e-12, global = 2.80522e-15, cumulative = -1.00612e-10
ExecutionTime = 3.38 s  ClockTime = 4 s

Time = 1.3

Courant Number mean: 0.00376995 max: 0.0616197
smoothSolver:  Solving for Ux, Initial residual = 0.000736555, Final residual = 3.60559e-06, No Iterations 2
smoothSolver:  Solving for Uy, Initial residual = 0.00240612, Final residual = 2.75595e-06, No Iterations 2
DICPCG:  Solving for p, Initial residual = 0.00862256, Final residual = 0.000420156, No Iterations 44
time step continuity errors : sum local = 6.19692e-10, global = 3.91882e-15, cumulative = -1.00608e-10
DICPCG:  Solving for p, Initial residual = 0.00154679, Final residual = 9.53637e-07, No Iterations 207
time step continuity errors : sum local = 1.39979e-12, global = 1.63402e-15, cumulative = -1.00606e-10
ExecutionTime = 3.48 s  ClockTime = 4 s

Time = 1.35

Courant Number mean: 0.00376917 max: 0.0613878
smoothSolver:  Solving for Ux, Initial residual = 0.000707199, Final residual = 3.41398e-06, No Iterations 2
smoothSolver:  Solving for Uy, Initial residual = 0.00234394, Final residual = 2.63898e-06, No Iterations 2
DICPCG:  Solving for p, Initial residual = 0.00819437, Final residual = 0.000403144, No Iterations 44
time step continuity errors : sum local = 5.88323e-10, global = 2.09247e-14, cumulative = -1.00585e-10
DICPCG:  Solving for p, Initial residual = 0.00145781, Final residual = 9.05079e-07, No Iterations 207
time step continuity errors : sum local = 1.31485e-12, global = -4.12859e-16, cumulative = -1.00586e-10
ExecutionTime = 3.59 s  ClockTime = 4 s

Time = 1.4

Courant Number mean: 0.00376842 max: 0.0611517
smoothSolver:  Solving for Ux, Initial residual = 0.000680126, Final residual = 3.2411e-06, No Iterations 2
smoothSolver:  Solving for Uy, Initial residual = 0.00228525, Final residual = 2.52724e-06, No Iterations 2
DICPCG:  Solving for p, Initial residual = 0.00802291, Final residual = 0.000382445, No Iterations 44
time step continuity errors : sum local = 5.52417e-10, global = 2.0903e-14, cumulative = -1.00565e-10
DICPCG:  Solving for p, Initial residual = 0.00140642, Final residual = 9.95777e-07, No Iterations 205
time step continuity errors : sum local = 1.43183e-12, global = -7.09811e-16, cumulative = -1.00565e-10
ExecutionTime = 3.69 s  ClockTime = 4 s

Time = 1.45

Courant Number mean: 0.00376768 max: 0.0609122
smoothSolver:  Solving for Ux, Initial residual = 0.000655031, Final residual = 3.0833e-06, No Iterations 2
smoothSolver:  Solving for Uy, Initial residual = 0.00222987, Final residual = 2.42459e-06, No Iterations 2
DICPCG:  Solving for p, Initial residual = 0.00793931, Final residual = 0.000369904, No Iterations 44
time step continuity errors : sum local = 5.28892e-10, global = 2.20394e-14, cumulative = -1.00543e-10
DICPCG:  Solving for p, Initial residual = 0.00138293, Final residual = 9.24921e-07, No Iterations 206
time step continuity errors : sum local = 1.31652e-12, global = -7.42038e-16, cumulative = -1.00544e-10
ExecutionTime = 3.8 s  ClockTime = 4 s

Time = 1.5

Courant Number mean: 0.00376695 max: 0.0606701
smoothSolver:  Solving for Ux, Initial residual = 0.000631648, Final residual = 2.93868e-06, No Iterations 2
smoothSolver:  Solving for Uy, Initial residual = 0.0021775, Final residual = 2.33078e-06, No Iterations 2
DICPCG:  Solving for p, Initial residual = 0.00788946, Final residual = 0.000385357, No Iterations 43
time step continuity errors : sum local = 5.45461e-10, global = 2.02035e-14, cumulative = -1.00524e-10
DICPCG:  Solving for p, Initial residual = 0.00137685, Final residual = 9.24952e-07, No Iterations 205
time step continuity errors : sum local = 1.30344e-12, global = -2.00445e-15, cumulative = -1.00526e-10
ExecutionTime = 3.91 s  ClockTime = 4 s

Time = 1.55

Courant Number mean: 0.00376625 max: 0.0604262
smoothSolver:  Solving for Ux, Initial residual = 0.000609823, Final residual = 2.80569e-06, No Iterations 2
smoothSolver:  Solving for Uy, Initial residual = 0.0021277, Final residual = 2.24392e-06, No Iterations 2
DICPCG:  Solving for p, Initial residual = 0.00772744, Final residual = 0.000361525, No Iterations 44
time step continuity errors : sum local = 5.06756e-10, global = 2.31033e-14, cumulative = -1.00503e-10
DICPCG:  Solving for p, Initial residual = 0.00132941, Final residual = 9.55897e-07, No Iterations 205
time step continuity errors : sum local = 1.33426e-12, global = -1.6001e-15, cumulative = -1.00504e-10
ExecutionTime = 4.01 s  ClockTime = 4 s

Time = 1.6

Courant Number mean: 0.00376555 max: 0.060181
smoothSolver:  Solving for Ux, Initial residual = 0.000589428, Final residual = 2.68299e-06, No Iterations 2
smoothSolver:  Solving for Uy, Initial residual = 0.00207988, Final residual = 2.1573e-06, No Iterations 2
DICPCG:  Solving for p, Initial residual = 0.00771709, Final residual = 0.000363494, No Iterations 43
time step continuity errors : sum local = 5.04532e-10, global = 1.86566e-14, cumulative = -1.00486e-10
DICPCG:  Solving for p, Initial residual = 0.00133131, Final residual = 9.77364e-07, No Iterations 204
time step continuity errors : sum local = 1.35042e-12, global = -6.81915e-16, cumulative = -1.00486e-10
ExecutionTime = 4.12 s  ClockTime = 4 s

Time = 1.65

Courant Number mean: 0.00376487 max: 0.0599352
smoothSolver:  Solving for Ux, Initial residual = 0.000570297, Final residual = 2.56953e-06, No Iterations 2
smoothSolver:  Solving for Uy, Initial residual = 0.00203446, Final residual = 2.07794e-06, No Iterations 2
DICPCG:  Solving for p, Initial residual = 0.00743579, Final residual = 0.000371636, No Iterations 43
time step continuity errors : sum local = 5.10744e-10, global = 1.88679e-14, cumulative = -1.00468e-10
DICPCG:  Solving for p, Initial residual = 0.0013021, Final residual = 9.96599e-07, No Iterations 204
time step continuity errors : sum local = 1.36373e-12, global = -2.61399e-15, cumulative = -1.0047e-10
ExecutionTime = 4.23 s  ClockTime = 4 s

Time = 1.7

Courant Number mean: 0.00376421 max: 0.059689
smoothSolver:  Solving for Ux, Initial residual = 0.000552268, Final residual = 2.46444e-06, No Iterations 2
smoothSolver:  Solving for Uy, Initial residual = 0.00199081, Final residual = 2.00329e-06, No Iterations 2
DICPCG:  Solving for p, Initial residual = 0.00723577, Final residual = 0.000356707, No Iterations 43
time step continuity errors : sum local = 4.85615e-10, global = 2.12673e-14, cumulative = -1.00449e-10
DICPCG:  Solving for p, Initial residual = 0.00125429, Final residual = 9.63288e-07, No Iterations 204
time step continuity errors : sum local = 1.30595e-12, global = -1.8147e-15, cumulative = -1.00451e-10
ExecutionTime = 4.33 s  ClockTime = 5 s

Time = 1.75

Courant Number mean: 0.00376356 max: 0.059443
smoothSolver:  Solving for Ux, Initial residual = 0.000535263, Final residual = 2.36642e-06, No Iterations 2
smoothSolver:  Solving for Uy, Initial residual = 0.00194917, Final residual = 1.93335e-06, No Iterations 2
DICPCG:  Solving for p, Initial residual = 0.00730691, Final residual = 0.000350213, No Iterations 43
time step continuity errors : sum local = 4.72207e-10, global = 1.73621e-14, cumulative = -1.00433e-10
DICPCG:  Solving for p, Initial residual = 0.00126114, Final residual = 9.58277e-07, No Iterations 204
time step continuity errors : sum local = 1.28631e-12, global = -1.35995e-15, cumulative = -1.00435e-10
ExecutionTime = 4.43 s  ClockTime = 5 s

Time = 1.8

Courant Number mean: 0.00376292 max: 0.0591975
smoothSolver:  Solving for Ux, Initial residual = 0.000519174, Final residual = 2.27489e-06, No Iterations 2
smoothSolver:  Solving for Uy, Initial residual = 0.00190929, Final residual = 1.86994e-06, No Iterations 2
DICPCG:  Solving for p, Initial residual = 0.00710063, Final residual = 0.000353785, No Iterations 43
time step continuity errors : sum local = 4.72274e-10, global = 2.19766e-14, cumulative = -1.00413e-10
DICPCG:  Solving for p, Initial residual = 0.00121233, Final residual = 9.14233e-07, No Iterations 204
time step continuity errors : sum local = 1.21485e-12, global = -2.90769e-15, cumulative = -1.00416e-10
ExecutionTime = 4.53 s  ClockTime = 5 s

Time = 1.85

Courant Number mean: 0.00376229 max: 0.0589528
smoothSolver:  Solving for Ux, Initial residual = 0.000504006, Final residual = 2.1894e-06, No Iterations 2
smoothSolver:  Solving for Uy, Initial residual = 0.00187121, Final residual = 1.8069e-06, No Iterations 2
DICPCG:  Solving for p, Initial residual = 0.00681795, Final residual = 0.000310481, No Iterations 44
time step continuity errors : sum local = 4.10424e-10, global = 2.16118e-14, cumulative = -1.00394e-10
DICPCG:  Solving for p, Initial residual = 0.00114704, Final residual = 8.88977e-07, No Iterations 204
time step continuity errors : sum local = 1.17013e-12, global = -2.42607e-15, cumulative = -1.00397e-10
ExecutionTime = 4.64 s  ClockTime = 5 s

Time = 1.9

Courant Number mean: 0.00376168 max: 0.0587093
smoothSolver:  Solving for Ux, Initial residual = 0.000489627, Final residual = 2.10945e-06, No Iterations 2
smoothSolver:  Solving for Uy, Initial residual = 0.00183444, Final residual = 1.74667e-06, No Iterations 2
DICPCG:  Solving for p, Initial residual = 0.00677473, Final residual = 0.000331815, No Iterations 43
time step continuity errors : sum local = 4.34589e-10, global = 1.5599e-14, cumulative = -1.00381e-10
DICPCG:  Solving for p, Initial residual = 0.00116883, Final residual = 8.73471e-07, No Iterations 204
time step continuity errors : sum local = 1.13937e-12, global = -2.50125e-15, cumulative = -1.00383e-10
ExecutionTime = 4.75 s  ClockTime = 5 s

Time = 1.95

Courant Number mean: 0.00376107 max: 0.0584669
smoothSolver:  Solving for Ux, Initial residual = 0.00047594, Final residual = 2.03424e-06, No Iterations 2
smoothSolver:  Solving for Uy, Initial residual = 0.001799, Final residual = 1.68981e-06, No Iterations 2
DICPCG:  Solving for p, Initial residual = 0.0066685, Final residual = 0.000302017, No Iterations 44
time step continuity errors : sum local = 3.91906e-10, global = 1.71415e-14, cumulative = -1.00366e-10
DICPCG:  Solving for p, Initial residual = 0.00113384, Final residual = 9.7344e-07, No Iterations 203
time step continuity errors : sum local = 1.25771e-12, global = 1.90811e-15, cumulative = -1.00364e-10
ExecutionTime = 4.85 s  ClockTime = 5 s

Time = 2

Courant Number mean: 0.00376047 max: 0.058226
smoothSolver:  Solving for Ux, Initial residual = 0.000462938, Final residual = 1.96373e-06, No Iterations 2
smoothSolver:  Solving for Uy, Initial residual = 0.00176464, Final residual = 1.63711e-06, No Iterations 2
DICPCG:  Solving for p, Initial residual = 0.00640388, Final residual = 0.000290435, No Iterations 44
time step continuity errors : sum local = 3.73415e-10, global = 2.23548e-14, cumulative = -1.00342e-10
DICPCG:  Solving for p, Initial residual = 0.00108503, Final residual = 9.47676e-07, No Iterations 203
time step continuity errors : sum local = 1.2135e-12, global = 1.65914e-15, cumulative = -1.0034e-10
ExecutionTime = 5.15 s  ClockTime = 5 s

Time = 2.05

Courant Number mean: 0.00375989 max: 0.0581519
smoothSolver:  Solving for Ux, Initial residual = 0.000450558, Final residual = 1.89719e-06, No Iterations 2
smoothSolver:  Solving for Uy, Initial residual = 0.00173157, Final residual = 1.58621e-06, No Iterations 2
DICPCG:  Solving for p, Initial residual = 0.00628278, Final residual = 0.000286054, No Iterations 44
time step continuity errors : sum local = 3.64539e-10, global = 1.7419e-14, cumulative = -1.00323e-10
DICPCG:  Solving for p, Initial residual = 0.00106627, Final residual = 9.37311e-07, No Iterations 203
time step continuity errors : sum local = 1.18976e-12, global = 1.58234e-15, cumulative = -1.00321e-10
ExecutionTime = 5.25 s  ClockTime = 6 s

Time = 2.1

Courant Number mean: 0.00375931 max: 0.0581237
smoothSolver:  Solving for Ux, Initial residual = 0.000438735, Final residual = 1.83427e-06, No Iterations 2
smoothSolver:  Solving for Uy, Initial residual = 0.00169967, Final residual = 1.53777e-06, No Iterations 2
DICPCG:  Solving for p, Initial residual = 0.00638282, Final residual = 0.000312907, No Iterations 43
time step continuity errors : sum local = 3.95335e-10, global = 1.56992e-14, cumulative = -1.00306e-10
DICPCG:  Solving for p, Initial residual = 0.0010886, Final residual = 9.64287e-07, No Iterations 203
time step continuity errors : sum local = 1.21363e-12, global = 1.19229e-15, cumulative = -1.00304e-10
ExecutionTime = 5.37 s  ClockTime = 6 s

Time = 2.15

Courant Number mean: 0.00375874 max: 0.0581078
smoothSolver:  Solving for Ux, Initial residual = 0.000427435, Final residual = 1.77475e-06, No Iterations 2
smoothSolver:  Solving for Uy, Initial residual = 0.00166877, Final residual = 1.49192e-06, No Iterations 2
DICPCG:  Solving for p, Initial residual = 0.00641176, Final residual = 0.000309341, No Iterations 43
time step continuity errors : sum local = 3.87503e-10, global = 1.65889e-14, cumulative = -1.00288e-10
DICPCG:  Solving for p, Initial residual = 0.00109115, Final residual = 9.48313e-07, No Iterations 203
time step continuity errors : sum local = 1.18331e-12, global = 1.92252e-15, cumulative = -1.00286e-10
ExecutionTime = 5.47 s  ClockTime = 6 s

Time = 2.2

Courant Number mean: 0.00375818 max: 0.0580876
smoothSolver:  Solving for Ux, Initial residual = 0.000416629, Final residual = 1.71812e-06, No Iterations 2
smoothSolver:  Solving for Uy, Initial residual = 0.00163897, Final residual = 1.44793e-06, No Iterations 2
DICPCG:  Solving for p, Initial residual = 0.00633093, Final residual = 0.000308751, No Iterations 43
time step continuity errors : sum local = 3.83413e-10, global = 1.52629e-14, cumulative = -1.00271e-10
DICPCG:  Solving for p, Initial residual = 0.00107712, Final residual = 9.05121e-07, No Iterations 203
time step continuity errors : sum local = 1.11953e-12, global = 4.62966e-16, cumulative = -1.0027e-10
ExecutionTime = 5.57 s  ClockTime = 6 s

Time = 2.25

Courant Number mean: 0.00375763 max: 0.0580634
smoothSolver:  Solving for Ux, Initial residual = 0.000406279, Final residual = 1.6644e-06, No Iterations 2
smoothSolver:  Solving for Uy, Initial residual = 0.00161026, Final residual = 1.4074e-06, No Iterations 2
DICPCG:  Solving for p, Initial residual = 0.0064334, Final residual = 0.000307743, No Iterations 43
time step continuity errors : sum local = 3.78857e-10, global = 1.36706e-14, cumulative = -1.00257e-10
DICPCG:  Solving for p, Initial residual = 0.00108984, Final residual = 9.18235e-07, No Iterations 203
time step continuity errors : sum local = 1.12602e-12, global = 6.27301e-16, cumulative = -1.00256e-10
ExecutionTime = 5.68 s  ClockTime = 6 s

Time = 2.3

Courant Number mean: 0.00375709 max: 0.0580352
smoothSolver:  Solving for Ux, Initial residual = 0.000396378, Final residual = 1.61349e-06, No Iterations 2
smoothSolver:  Solving for Uy, Initial residual = 0.00158235, Final residual = 1.36807e-06, No Iterations 2
DICPCG:  Solving for p, Initial residual = 0.00612646, Final residual = 0.000279649, No Iterations 44
time step continuity errors : sum local = 3.41311e-10, global = 1.68666e-14, cumulative = -1.00239e-10
DICPCG:  Solving for p, Initial residual = 0.00103683, Final residual = 9.49308e-07, No Iterations 186
time step continuity errors : sum local = 1.15407e-12, global = 3.20667e-14, cumulative = -1.00207e-10
ExecutionTime = 5.77 s  ClockTime = 6 s

Time = 2.35

Courant Number mean: 0.00375656 max: 0.0580034
smoothSolver:  Solving for Ux, Initial residual = 0.000386888, Final residual = 1.56523e-06, No Iterations 2
smoothSolver:  Solving for Uy, Initial residual = 0.00155508, Final residual = 1.32999e-06, No Iterations 2
DICPCG:  Solving for p, Initial residual = 0.00596502, Final residual = 0.000296259, No Iterations 43
time step continuity errors : sum local = 3.58486e-10, global = 4.30112e-14, cumulative = -1.00164e-10
DICPCG:  Solving for p, Initial residual = 0.00102117, Final residual = 9.90378e-07, No Iterations 202
time step continuity errors : sum local = 1.1937e-12, global = 5.58239e-15, cumulative = -1.00158e-10
ExecutionTime = 5.89 s  ClockTime = 6 s

Time = 2.4

Courant Number mean: 0.00375603 max: 0.0579682
smoothSolver:  Solving for Ux, Initial residual = 0.000377779, Final residual = 1.51916e-06, No Iterations 2
smoothSolver:  Solving for Uy, Initial residual = 0.00152891, Final residual = 1.29484e-06, No Iterations 2
DICPCG:  Solving for p, Initial residual = 0.00586128, Final residual = 0.00028899, No Iterations 43
time step continuity errors : sum local = 3.46727e-10, global = 2.57164e-15, cumulative = -1.00156e-10
DICPCG:  Solving for p, Initial residual = 0.00101007, Final residual = 9.26478e-07, No Iterations 202
time step continuity errors : sum local = 1.10733e-12, global = 4.42249e-15, cumulative = -1.00151e-10
ExecutionTime = 5.99 s  ClockTime = 6 s

Time = 2.45

Courant Number mean: 0.00375551 max: 0.0579298
smoothSolver:  Solving for Ux, Initial residual = 0.00036903, Final residual = 1.47522e-06, No Iterations 2
smoothSolver:  Solving for Uy, Initial residual = 0.00150355, Final residual = 1.26138e-06, No Iterations 2
DICPCG:  Solving for p, Initial residual = 0.00581528, Final residual = 0.000263525, No Iterations 44
time step continuity errors : sum local = 3.13544e-10, global = 1.79746e-14, cumulative = -1.00133e-10
DICPCG:  Solving for p, Initial residual = 0.000982049, Final residual = 9.83548e-07, No Iterations 187
time step continuity errors : sum local = 1.16579e-12, global = 2.74812e-14, cumulative = -1.00106e-10
ExecutionTime = 6.09 s  ClockTime = 6 s

Time = 2.5

Courant Number mean: 0.003755 max: 0.0578884
smoothSolver:  Solving for Ux, Initial residual = 0.000360637, Final residual = 1.4333e-06, No Iterations 2
smoothSolver:  Solving for Uy, Initial residual = 0.00147892, Final residual = 1.22823e-06, No Iterations 2
DICPCG:  Solving for p, Initial residual = 0.00567962, Final residual = 0.000262835, No Iterations 44
time step continuity errors : sum local = 3.10136e-10, global = 4.21861e-14, cumulative = -1.00064e-10
DICPCG:  Solving for p, Initial residual = 0.000963653, Final residual = 9.53707e-07, No Iterations 187
time step continuity errors : sum local = 1.1211e-12, global = 2.37785e-14, cumulative = -1.0004e-10
ExecutionTime = 6.19 s  ClockTime = 6 s

Time = 2.55

Courant Number mean: 0.0037545 max: 0.0578441
smoothSolver:  Solving for Ux, Initial residual = 0.000352567, Final residual = 1.39329e-06, No Iterations 2
smoothSolver:  Solving for Uy, Initial residual = 0.00145488, Final residual = 1.19549e-06, No Iterations 2
DICPCG:  Solving for p, Initial residual = 0.00550325, Final residual = 0.000252465, No Iterations 44
time step continuity errors : sum local = 2.95484e-10, global = 2.79532e-14, cumulative = -1.00012e-10
DICPCG:  Solving for p, Initial residual = 0.000929604, Final residual = 9.98813e-07, No Iterations 182
time step continuity errors : sum local = 1.16477e-12, global = 3.77471e-14, cumulative = -9.99743e-11
ExecutionTime = 6.29 s  ClockTime = 7 s

Time = 2.6

Courant Number mean: 0.003754 max: 0.0577972
smoothSolver:  Solving for Ux, Initial residual = 0.000344798, Final residual = 1.35511e-06, No Iterations 2
smoothSolver:  Solving for Uy, Initial residual = 0.00143154, Final residual = 1.1651e-06, No Iterations 2
DICPCG:  Solving for p, Initial residual = 0.00544804, Final residual = 0.000252397, No Iterations 44
time step continuity errors : sum local = 2.93058e-10, global = 2.56706e-14, cumulative = -9.99486e-11
DICPCG:  Solving for p, Initial residual = 0.000920435, Final residual = 9.92351e-07, No Iterations 184
time step continuity errors : sum local = 1.14803e-12, global = 3.7191e-14, cumulative = -9.99114e-11
ExecutionTime = 6.39 s  ClockTime = 7 s

Time = 2.65

Courant Number mean: 0.00375351 max: 0.0577477
smoothSolver:  Solving for Ux, Initial residual = 0.000337315, Final residual = 1.31852e-06, No Iterations 2
smoothSolver:  Solving for Uy, Initial residual = 0.00140893, Final residual = 1.13613e-06, No Iterations 2
DICPCG:  Solving for p, Initial residual = 0.00541109, Final residual = 0.000252084, No Iterations 44
time step continuity errors : sum local = 2.90376e-10, global = 2.80307e-14, cumulative = -9.98834e-11
DICPCG:  Solving for p, Initial residual = 0.000914029, Final residual = 9.86319e-07, No Iterations 185
time step continuity errors : sum local = 1.13205e-12, global = 3.22499e-14, cumulative = -9.98511e-11
ExecutionTime = 6.48 s  ClockTime = 7 s

Time = 2.7

Courant Number mean: 0.00375303 max: 0.0576959
smoothSolver:  Solving for Ux, Initial residual = 0.000330101, Final residual = 9.93396e-06, No Iterations 1
smoothSolver:  Solving for Uy, Initial residual = 0.00138693, Final residual = 1.10831e-06, No Iterations 2
DICPCG:  Solving for p, Initial residual = 0.00642005, Final residual = 0.000300092, No Iterations 58
time step continuity errors : sum local = 3.42847e-10, global = -6.40614e-14, cumulative = -9.99152e-11
DICPCG:  Solving for p, Initial residual = 0.00337751, Final residual = 8.52454e-07, No Iterations 210
time step continuity errors : sum local = 9.70119e-13, global = -1.2426e-14, cumulative = -9.99276e-11
ExecutionTime = 6.59 s  ClockTime = 7 s

Time = 2.75

Courant Number mean: 0.00375255 max: 0.057641
smoothSolver:  Solving for Ux, Initial residual = 0.000321382, Final residual = 9.73658e-06, No Iterations 1
smoothSolver:  Solving for Uy, Initial residual = 0.00135425, Final residual = 1.08363e-06, No Iterations 2
DICPCG:  Solving for p, Initial residual = 0.00635915, Final residual = 0.000296198, No Iterations 56
time step continuity errors : sum local = 3.35556e-10, global = -3.95696e-13, cumulative = -1.00323e-10
DICPCG:  Solving for p, Initial residual = 0.00327907, Final residual = 9.99069e-07, No Iterations 209
time step continuity errors : sum local = 1.12787e-12, global = -1.46464e-14, cumulative = -1.00338e-10
ExecutionTime = 6.7 s  ClockTime = 7 s

Time = 2.8

Courant Number mean: 0.00375209 max: 0.0575842
smoothSolver:  Solving for Ux, Initial residual = 0.000314932, Final residual = 9.51484e-06, No Iterations 1
smoothSolver:  Solving for Uy, Initial residual = 0.0013345, Final residual = 1.05718e-06, No Iterations 2
DICPCG:  Solving for p, Initial residual = 0.00636821, Final residual = 0.000296485, No Iterations 56
time step continuity errors : sum local = 3.33385e-10, global = -3.16134e-13, cumulative = -1.00654e-10
DICPCG:  Solving for p, Initial residual = 0.00325528, Final residual = 9.95487e-07, No Iterations 209
time step continuity errors : sum local = 1.11537e-12, global = -1.48232e-14, cumulative = -1.00669e-10
ExecutionTime = 6.82 s  ClockTime = 7 s

Time = 2.85

Courant Number mean: 0.00375162 max: 0.0575256
smoothSolver:  Solving for Ux, Initial residual = 0.000308625, Final residual = 9.29965e-06, No Iterations 1
smoothSolver:  Solving for Uy, Initial residual = 0.00131486, Final residual = 1.03249e-06, No Iterations 2
DICPCG:  Solving for p, Initial residual = 0.00629521, Final residual = 0.000300353, No Iterations 56
time step continuity errors : sum local = 3.35222e-10, global = -3.12774e-13, cumulative = -1.00982e-10
DICPCG:  Solving for p, Initial residual = 0.00323653, Final residual = 9.84823e-07, No Iterations 209
time step continuity errors : sum local = 1.09533e-12, global = -1.43193e-14, cumulative = -1.00996e-10
ExecutionTime = 6.93 s  ClockTime = 7 s

Time = 2.9

Courant Number mean: 0.00375117 max: 0.0574652
smoothSolver:  Solving for Ux, Initial residual = 0.000302517, Final residual = 9.09077e-06, No Iterations 1
smoothSolver:  Solving for Uy, Initial residual = 0.00129576, Final residual = 1.00972e-06, No Iterations 2
DICPCG:  Solving for p, Initial residual = 0.00623896, Final residual = 0.0002987, No Iterations 56
time step continuity errors : sum local = 3.30983e-10, global = -3.09052e-13, cumulative = -1.01305e-10
DICPCG:  Solving for p, Initial residual = 0.00321234, Final residual = 9.74715e-07, No Iterations 209
time step continuity errors : sum local = 1.07647e-12, global = -1.39963e-14, cumulative = -1.01319e-10
ExecutionTime = 7.04 s  ClockTime = 7 s

Time = 2.95

Courant Number mean: 0.00375072 max: 0.0574033
smoothSolver:  Solving for Ux, Initial residual = 0.000296617, Final residual = 8.88891e-06, No Iterations 1
smoothSolver:  Solving for Uy, Initial residual = 0.00127703, Final residual = 9.86847e-07, No Iterations 2
DICPCG:  Solving for p, Initial residual = 0.00636687, Final residual = 0.000303953, No Iterations 56
time step continuity errors : sum local = 3.3432e-10, global = -3.05751e-13, cumulative = -1.01625e-10
DICPCG:  Solving for p, Initial residual = 0.00320645, Final residual = 9.40215e-07, No Iterations 209
time step continuity errors : sum local = 1.0303e-12, global = -1.39806e-14, cumulative = -1.01639e-10
ExecutionTime = 7.15 s  ClockTime = 7 s

Time = 3

Courant Number mean: 0.00375027 max: 0.0573398
smoothSolver:  Solving for Ux, Initial residual = 0.000290852, Final residual = 8.69142e-06, No Iterations 1
smoothSolver:  Solving for Uy, Initial residual = 0.00125897, Final residual = 9.64646e-07, No Iterations 2
DICPCG:  Solving for p, Initial residual = 0.00599315, Final residual = 0.000286373, No Iterations 56
time step continuity errors : sum local = 3.12608e-10, global = -3.03786e-13, cumulative = -1.01943e-10
DICPCG:  Solving for p, Initial residual = 0.00313916, Final residual = 9.48162e-07, No Iterations 209
time step continuity errors : sum local = 1.03149e-12, global = -1.36662e-14, cumulative = -1.01956e-10
ExecutionTime = 7.45 s  ClockTime = 8 s

Time = 3.05

Courant Number mean: 0.00374984 max: 0.0572748
smoothSolver:  Solving for Ux, Initial residual = 0.000285298, Final residual = 8.50233e-06, No Iterations 1
smoothSolver:  Solving for Uy, Initial residual = 0.00124122, Final residual = 9.44341e-07, No Iterations 2
DICPCG:  Solving for p, Initial residual = 0.00592937, Final residual = 0.000282081, No Iterations 56
time step continuity errors : sum local = 3.05722e-10, global = -2.95351e-13, cumulative = -1.02252e-10
DICPCG:  Solving for p, Initial residual = 0.00310707, Final residual = 9.29671e-07, No Iterations 209
time step continuity errors : sum local = 1.00419e-12, global = -1.29538e-14, cumulative = -1.02265e-10
ExecutionTime = 7.56 s  ClockTime = 8 s

Time = 3.1

Courant Number mean: 0.0037494 max: 0.0572086
smoothSolver:  Solving for Ux, Initial residual = 0.000279926, Final residual = 8.31893e-06, No Iterations 1
smoothSolver:  Solving for Uy, Initial residual = 0.00122399, Final residual = 9.25483e-07, No Iterations 2
DICPCG:  Solving for p, Initial residual = 0.00586757, Final residual = 0.000280423, No Iterations 56
time step continuity errors : sum local = 3.01775e-10, global = -2.90588e-13, cumulative = -1.02555e-10
DICPCG:  Solving for p, Initial residual = 0.00308513, Final residual = 9.28679e-07, No Iterations 209
time step continuity errors : sum local = 9.96068e-13, global = -1.38444e-14, cumulative = -1.02569e-10
ExecutionTime = 7.67 s  ClockTime = 8 s

Time = 3.15

Courant Number mean: 0.00374898 max: 0.0571411
smoothSolver:  Solving for Ux, Initial residual = 0.000274724, Final residual = 8.14145e-06, No Iterations 1
smoothSolver:  Solving for Uy, Initial residual = 0.00120713, Final residual = 9.05877e-07, No Iterations 2
DICPCG:  Solving for p, Initial residual = 0.00579375, Final residual = 0.000274962, No Iterations 56
time step continuity errors : sum local = 2.93823e-10, global = -2.88471e-13, cumulative = -1.02857e-10
DICPCG:  Solving for p, Initial residual = 0.00305537, Final residual = 9.18309e-07, No Iterations 209
time step continuity errors : sum local = 9.78019e-13, global = -1.24769e-14, cumulative = -1.0287e-10
ExecutionTime = 7.78 s  ClockTime = 8 s

Time = 3.2

Courant Number mean: 0.00374855 max: 0.0570724
smoothSolver:  Solving for Ux, Initial residual = 0.000269677, Final residual = 7.97001e-06, No Iterations 1
smoothSolver:  Solving for Uy, Initial residual = 0.00119069, Final residual = 9.93403e-06, No Iterations 1
DICPCG:  Solving for p, Initial residual = 0.00576632, Final residual = 0.000280781, No Iterations 57
time step continuity errors : sum local = 2.98004e-10, global = -2.78841e-13, cumulative = -1.03149e-10
DICPCG:  Solving for p, Initial residual = 0.00311391, Final residual = 9.76442e-07, No Iterations 209
time step continuity errors : sum local = 1.03313e-12, global = -9.88307e-15, cumulative = -1.03159e-10
ExecutionTime = 7.89 s  ClockTime = 8 s

Time = 3.25

Courant Number mean: 0.00374813 max: 0.0570029
smoothSolver:  Solving for Ux, Initial residual = 0.000264679, Final residual = 7.80445e-06, No Iterations 1
smoothSolver:  Solving for Uy, Initial residual = 0.00117433, Final residual = 9.78721e-06, No Iterations 1
DICPCG:  Solving for p, Initial residual = 0.00576072, Final residual = 0.000266279, No Iterations 57
time step continuity errors : sum local = 2.80713e-10, global = -2.78904e-13, cumulative = -1.03438e-10
DICPCG:  Solving for p, Initial residual = 0.00308307, Final residual = 9.54259e-07, No Iterations 209
time step continuity errors : sum local = 1.00275e-12, global = -1.05917e-14, cumulative = -1.03448e-10
ExecutionTime = 8 s  ClockTime = 8 s

Time = 3.3

Courant Number mean: 0.00374772 max: 0.0569323
smoothSolver:  Solving for Ux, Initial residual = 0.000259934, Final residual = 7.64403e-06, No Iterations 1
smoothSolver:  Solving for Uy, Initial residual = 0.00115872, Final residual = 9.61617e-06, No Iterations 1
DICPCG:  Solving for p, Initial residual = 0.00563976, Final residual = 0.000268956, No Iterations 57
time step continuity errors : sum local = 2.81666e-10, global = -2.7137e-13, cumulative = -1.0372e-10
DICPCG:  Solving for p, Initial residual = 0.00304976, Final residual = 9.39729e-07, No Iterations 209
time step continuity errors : sum local = 9.81153e-13, global = -9.93659e-15, cumulative = -1.03729e-10
ExecutionTime = 8.11 s  ClockTime = 8 s

Time = 3.35

Courant Number mean: 0.00374732 max: 0.0568608
smoothSolver:  Solving for Ux, Initial residual = 0.000255327, Final residual = 7.48823e-06, No Iterations 1
smoothSolver:  Solving for Uy, Initial residual = 0.0011435, Final residual = 9.45385e-06, No Iterations 1
DICPCG:  Solving for p, Initial residual = 0.00577313, Final residual = 0.000269397, No Iterations 57
time step continuity errors : sum local = 2.80352e-10, global = -2.68755e-13, cumulative = -1.03998e-10
DICPCG:  Solving for p, Initial residual = 0.00302653, Final residual = 9.2914e-07, No Iterations 209
time step continuity errors : sum local = 9.64124e-13, global = -9.92905e-15, cumulative = -1.04008e-10
ExecutionTime = 8.22 s  ClockTime = 9 s

Time = 3.4

Courant Number mean: 0.00374691 max: 0.0567884
smoothSolver:  Solving for Ux, Initial residual = 0.000250854, Final residual = 7.33692e-06, No Iterations 1
smoothSolver:  Solving for Uy, Initial residual = 0.00112867, Final residual = 9.29582e-06, No Iterations 1
DICPCG:  Solving for p, Initial residual = 0.00572862, Final residual = 0.000272595, No Iterations 57
time step continuity errors : sum local = 2.81867e-10, global = -2.62404e-13, cumulative = -1.04271e-10
DICPCG:  Solving for p, Initial residual = 0.00301983, Final residual = 9.21282e-07, No Iterations 209
time step continuity errors : sum local = 9.49629e-13, global = -1.01298e-14, cumulative = -1.04281e-10
ExecutionTime = 8.33 s  ClockTime = 9 s

Time = 3.45

Courant Number mean: 0.00374652 max: 0.0567151
smoothSolver:  Solving for Ux, Initial residual = 0.000246512, Final residual = 7.19112e-06, No Iterations 1
smoothSolver:  Solving for Uy, Initial residual = 0.001114, Final residual = 9.13685e-06, No Iterations 1
DICPCG:  Solving for p, Initial residual = 0.00554819, Final residual = 0.000268557, No Iterations 57
time step continuity errors : sum local = 2.7586e-10, global = -2.58533e-13, cumulative = -1.04539e-10
DICPCG:  Solving for p, Initial residual = 0.00298947, Final residual = 9.18583e-07, No Iterations 209
time step continuity errors : sum local = 9.40639e-13, global = -9.52046e-15, cumulative = -1.04549e-10
ExecutionTime = 8.43 s  ClockTime = 9 s

Time = 3.5

Courant Number mean: 0.00374612 max: 0.0566411
smoothSolver:  Solving for Ux, Initial residual = 0.000242292, Final residual = 7.04923e-06, No Iterations 1
smoothSolver:  Solving for Uy, Initial residual = 0.00109974, Final residual = 8.98968e-06, No Iterations 1
DICPCG:  Solving for p, Initial residual = 0.00544113, Final residual = 0.000262837, No Iterations 57
time step continuity errors : sum local = 2.68226e-10, global = -2.56025e-13, cumulative = -1.04805e-10
DICPCG:  Solving for p, Initial residual = 0.0029573, Final residual = 9.11025e-07, No Iterations 209
time step continuity errors : sum local = 9.2684e-13, global = -9.53982e-15, cumulative = -1.04814e-10
ExecutionTime = 8.54 s  ClockTime = 9 s

Time = 3.55

Courant Number mean: 0.00374574 max: 0.0565664
smoothSolver:  Solving for Ux, Initial residual = 0.000238192, Final residual = 6.91121e-06, No Iterations 1
smoothSolver:  Solving for Uy, Initial residual = 0.00108589, Final residual = 8.84734e-06, No Iterations 1
DICPCG:  Solving for p, Initial residual = 0.00531237, Final residual = 0.000255928, No Iterations 57
time step continuity errors : sum local = 2.59511e-10, global = -2.53012e-13, cumulative = -1.05067e-10
DICPCG:  Solving for p, Initial residual = 0.00291917, Final residual = 9.01087e-07, No Iterations 209
time step continuity errors : sum local = 9.11018e-13, global = -9.39531e-15, cumulative = -1.05077e-10
ExecutionTime = 8.65 s  ClockTime = 9 s

Time = 3.6

Courant Number mean: 0.00374535 max: 0.056491
smoothSolver:  Solving for Ux, Initial residual = 0.00023421, Final residual = 6.77764e-06, No Iterations 1
smoothSolver:  Solving for Uy, Initial residual = 0.00107225, Final residual = 8.70786e-06, No Iterations 1
DICPCG:  Solving for p, Initial residual = 0.0052725, Final residual = 0.000256064, No Iterations 57
time step continuity errors : sum local = 2.58065e-10, global = -2.48224e-13, cumulative = -1.05325e-10
DICPCG:  Solving for p, Initial residual = 0.00289871, Final residual = 8.90971e-07, No Iterations 209
time step continuity errors : sum local = 8.95403e-13, global = -9.25188e-15, cumulative = -1.05334e-10
ExecutionTime = 8.76 s  ClockTime = 9 s

Time = 3.65

Courant Number mean: 0.00374497 max: 0.056415
smoothSolver:  Solving for Ux, Initial residual = 0.00023034, Final residual = 6.64827e-06, No Iterations 1
smoothSolver:  Solving for Uy, Initial residual = 0.0010589, Final residual = 8.57226e-06, No Iterations 1
DICPCG:  Solving for p, Initial residual = 0.00520989, Final residual = 0.000251304, No Iterations 57
time step continuity errors : sum local = 2.5176e-10, global = -2.44742e-13, cumulative = -1.05579e-10
DICPCG:  Solving for p, Initial residual = 0.00287067, Final residual = 8.82215e-07, No Iterations 209
time step continuity errors : sum local = 8.81339e-13, global = -9.12905e-15, cumulative = -1.05588e-10
ExecutionTime = 8.87 s  ClockTime = 9 s

Time = 3.7

Courant Number mean: 0.00374459 max: 0.0563385
smoothSolver:  Solving for Ux, Initial residual = 0.000226574, Final residual = 6.52246e-06, No Iterations 1
smoothSolver:  Solving for Uy, Initial residual = 0.00104587, Final residual = 8.44e-06, No Iterations 1
DICPCG:  Solving for p, Initial residual = 0.00532315, Final residual = 0.000256142, No Iterations 57
time step continuity errors : sum local = 2.55048e-10, global = -2.41599e-13, cumulative = -1.0583e-10
DICPCG:  Solving for p, Initial residual = 0.00286275, Final residual = 8.72291e-07, No Iterations 209
time step continuity errors : sum local = 8.65994e-13, global = -9.0418e-15, cumulative = -1.05839e-10
ExecutionTime = 8.98 s  ClockTime = 9 s

Time = 3.75

Courant Number mean: 0.00374422 max: 0.0562614
smoothSolver:  Solving for Ux, Initial residual = 0.000222899, Final residual = 6.39951e-06, No Iterations 1
smoothSolver:  Solving for Uy, Initial residual = 0.00103317, Final residual = 8.31174e-06, No Iterations 1
DICPCG:  Solving for p, Initial residual = 0.00511905, Final residual = 0.000247673, No Iterations 57
time step continuity errors : sum local = 2.45122e-10, global = -2.37723e-13, cumulative = -1.06076e-10
DICPCG:  Solving for p, Initial residual = 0.00282049, Final residual = 8.64543e-07, No Iterations 209
time step continuity errors : sum local = 8.53297e-13, global = -8.84975e-15, cumulative = -1.06085e-10
ExecutionTime = 9.09 s  ClockTime = 9 s

Time = 3.8

Courant Number mean: 0.00374385 max: 0.0561839
smoothSolver:  Solving for Ux, Initial residual = 0.000219326, Final residual = 6.28065e-06, No Iterations 1
smoothSolver:  Solving for Uy, Initial residual = 0.00102069, Final residual = 8.18744e-06, No Iterations 1
DICPCG:  Solving for p, Initial residual = 0.00522257, Final residual = 0.000255231, No Iterations 57
time step continuity errors : sum local = 2.51139e-10, global = -2.32885e-13, cumulative = -1.06318e-10
DICPCG:  Solving for p, Initial residual = 0.00282262, Final residual = 8.59224e-07, No Iterations 209
time step continuity errors : sum local = 8.43138e-13, global = -8.73661e-15, cumulative = -1.06327e-10
ExecutionTime = 9.19 s  ClockTime = 9 s

Time = 3.85

Courant Number mean: 0.00374349 max: 0.056106
smoothSolver:  Solving for Ux, Initial residual = 0.000215857, Final residual = 6.16514e-06, No Iterations 1
smoothSolver:  Solving for Uy, Initial residual = 0.00100845, Final residual = 8.06111e-06, No Iterations 1
DICPCG:  Solving for p, Initial residual = 0.00521276, Final residual = 0.000254848, No Iterations 57
time step continuity errors : sum local = 2.49289e-10, global = -2.30509e-13, cumulative = -1.06557e-10
DICPCG:  Solving for p, Initial residual = 0.00280684, Final residual = 8.51786e-07, No Iterations 209
time step continuity errors : sum local = 8.30848e-13, global = -8.73027e-15, cumulative = -1.06566e-10
ExecutionTime = 9.3 s  ClockTime = 10 s

Time = 3.9

Courant Number mean: 0.00374313 max: 0.0560277
smoothSolver:  Solving for Ux, Initial residual = 0.000212467, Final residual = 6.0521e-06, No Iterations 1
smoothSolver:  Solving for Uy, Initial residual = 0.000996569, Final residual = 7.94398e-06, No Iterations 1
DICPCG:  Solving for p, Initial residual = 0.0050086, Final residual = 0.000236014, No Iterations 57
time step continuity errors : sum local = 2.29497e-10, global = -2.27459e-13, cumulative = -1.06794e-10
DICPCG:  Solving for p, Initial residual = 0.00275474, Final residual = 8.49346e-07, No Iterations 209
time step continuity errors : sum local = 8.23611e-13, global = -8.59935e-15, cumulative = -1.06802e-10
ExecutionTime = 9.41 s  ClockTime = 10 s

Time = 3.95

Courant Number mean: 0.00374277 max: 0.055949
smoothSolver:  Solving for Ux, Initial residual = 0.000209173, Final residual = 5.9429e-06, No Iterations 1
smoothSolver:  Solving for Uy, Initial residual = 0.000984876, Final residual = 7.8303e-06, No Iterations 1
DICPCG:  Solving for p, Initial residual = 0.00490995, Final residual = 0.000236401, No Iterations 57
time step continuity errors : sum local = 2.28551e-10, global = -2.21507e-13, cumulative = -1.07024e-10
DICPCG:  Solving for p, Initial residual = 0.0027259, Final residual = 8.37936e-07, No Iterations 209
time step continuity errors : sum local = 8.07935e-13, global = -8.4354e-15, cumulative = -1.07032e-10
ExecutionTime = 9.52 s  ClockTime = 10 s

Time = 4

Courant Number mean: 0.00374242 max: 0.05587
smoothSolver:  Solving for Ux, Initial residual = 0.000205966, Final residual = 5.83648e-06, No Iterations 1
smoothSolver:  Solving for Uy, Initial residual = 0.000973423, Final residual = 7.71997e-06, No Iterations 1
DICPCG:  Solving for p, Initial residual = 0.00495618, Final residual = 0.000232467, No Iterations 57
time step continuity errors : sum local = 2.23461e-10, global = -2.18557e-13, cumulative = -1.07251e-10
DICPCG:  Solving for p, Initial residual = 0.00271172, Final residual = 8.34944e-07, No Iterations 209
time step continuity errors : sum local = 8.00418e-13, global = -8.3774e-15, cumulative = -1.07259e-10
ExecutionTime = 9.81 s  ClockTime = 10 s

Time = 4.05

Courant Number mean: 0.00374207 max: 0.0557907
smoothSolver:  Solving for Ux, Initial residual = 0.000202842, Final residual = 5.73297e-06, No Iterations 1
smoothSolver:  Solving for Uy, Initial residual = 0.000962206, Final residual = 7.61335e-06, No Iterations 1
DICPCG:  Solving for p, Initial residual = 0.00480131, Final residual = 0.000233183, No Iterations 57
time step continuity errors : sum local = 2.22889e-10, global = -2.15912e-13, cumulative = -1.07475e-10
DICPCG:  Solving for p, Initial residual = 0.00267941, Final residual = 9.82128e-07, No Iterations 208
time step continuity errors : sum local = 9.36329e-13, global = -9.27209e-15, cumulative = -1.07484e-10
ExecutionTime = 9.92 s  ClockTime = 10 s

Time = 4.1

Courant Number mean: 0.00374172 max: 0.0557111
smoothSolver:  Solving for Ux, Initial residual = 0.000199797, Final residual = 5.63215e-06, No Iterations 1
smoothSolver:  Solving for Uy, Initial residual = 0.000951212, Final residual = 7.50931e-06, No Iterations 1
DICPCG:  Solving for p, Initial residual = 0.00477931, Final residual = 0.000230385, No Iterations 57
time step continuity errors : sum local = 2.19008e-10, global = -2.1392e-13, cumulative = -1.07698e-10
DICPCG:  Solving for p, Initial residual = 0.00265822, Final residual = 9.73362e-07, No Iterations 208
time step continuity errors : sum local = 9.22918e-13, global = -9.0313e-15, cumulative = -1.07707e-10
ExecutionTime = 10.04 s  ClockTime = 10 s

Time = 4.15

Courant Number mean: 0.00374138 max: 0.0556314
smoothSolver:  Solving for Ux, Initial residual = 0.000196829, Final residual = 5.53406e-06, No Iterations 1
smoothSolver:  Solving for Uy, Initial residual = 0.00094043, Final residual = 7.40831e-06, No Iterations 1
DICPCG:  Solving for p, Initial residual = 0.00476591, Final residual = 0.000231137, No Iterations 57
time step continuity errors : sum local = 2.18545e-10, global = -2.10981e-13, cumulative = -1.07918e-10
DICPCG:  Solving for p, Initial residual = 0.00263927, Final residual = 9.72155e-07, No Iterations 208
time step continuity errors : sum local = 9.16902e-13, global = -8.91969e-15, cumulative = -1.07927e-10
ExecutionTime = 10.14 s  ClockTime = 10 s

Time = 4.2

Courant Number mean: 0.00374104 max: 0.0555514
smoothSolver:  Solving for Ux, Initial residual = 0.000193934, Final residual = 5.43844e-06, No Iterations 1
smoothSolver:  Solving for Uy, Initial residual = 0.000929862, Final residual = 7.30899e-06, No Iterations 1
DICPCG:  Solving for p, Initial residual = 0.00467039, Final residual = 0.000225237, No Iterations 57
time step continuity errors : sum local = 2.11829e-10, global = -2.07019e-13, cumulative = -1.08134e-10
DICPCG:  Solving for p, Initial residual = 0.00261291, Final residual = 9.59317e-07, No Iterations 208
time step continuity errors : sum local = 8.99915e-13, global = -9.02594e-15, cumulative = -1.08143e-10
ExecutionTime = 10.25 s  ClockTime = 11 s

Time = 4.25

Courant Number mean: 0.0037407 max: 0.0554713
smoothSolver:  Solving for Ux, Initial residual = 0.000191107, Final residual = 5.34514e-06, No Iterations 1
smoothSolver:  Solving for Uy, Initial residual = 0.000919515, Final residual = 7.21356e-06, No Iterations 1
DICPCG:  Solving for p, Initial residual = 0.00470223, Final residual = 0.000224654, No Iterations 57
time step continuity errors : sum local = 2.10134e-10, global = -2.02764e-13, cumulative = -1.08346e-10
DICPCG:  Solving for p, Initial residual = 0.00259907, Final residual = 9.54689e-07, No Iterations 208
time step continuity errors : sum local = 8.90675e-13, global = -8.98887e-15, cumulative = -1.08355e-10
ExecutionTime = 10.36 s  ClockTime = 11 s

Time = 4.3

Courant Number mean: 0.00374037 max: 0.055391
smoothSolver:  Solving for Ux, Initial residual = 0.000188347, Final residual = 5.25418e-06, No Iterations 1
smoothSolver:  Solving for Uy, Initial residual = 0.000909383, Final residual = 7.12059e-06, No Iterations 1
DICPCG:  Solving for p, Initial residual = 0.004678, Final residual = 0.000222279, No Iterations 57
time step continuity errors : sum local = 2.06785e-10, global = -2.00135e-13, cumulative = -1.08555e-10
DICPCG:  Solving for p, Initial residual = 0.00257713, Final residual = 9.43461e-07, No Iterations 208
time step continuity errors : sum local = 8.75465e-13, global = -8.64141e-15, cumulative = -1.08564e-10
ExecutionTime = 10.47 s  ClockTime = 11 s

Time = 4.35

Courant Number mean: 0.00374004 max: 0.0553105
smoothSolver:  Solving for Ux, Initial residual = 0.000185652, Final residual = 5.16547e-06, No Iterations 1
smoothSolver:  Solving for Uy, Initial residual = 0.000899465, Final residual = 7.0303e-06, No Iterations 1
DICPCG:  Solving for p, Initial residual = 0.00466619, Final residual = 0.000225155, No Iterations 57
time step continuity errors : sum local = 2.0837e-10, global = -1.98109e-13, cumulative = -1.08762e-10
DICPCG:  Solving for p, Initial residual = 0.00256387, Final residual = 9.38882e-07, No Iterations 208
time step continuity errors : sum local = 8.66829e-13, global = -8.5104e-15, cumulative = -1.0877e-10
ExecutionTime = 10.57 s  ClockTime = 11 s

Time = 4.4

Courant Number mean: 0.00373971 max: 0.05523
smoothSolver:  Solving for Ux, Initial residual = 0.000183025, Final residual = 5.07892e-06, No Iterations 1
smoothSolver:  Solving for Uy, Initial residual = 0.000889749, Final residual = 6.94211e-06, No Iterations 1
DICPCG:  Solving for p, Initial residual = 0.00468637, Final residual = 0.000231488, No Iterations 57
time step continuity errors : sum local = 2.13108e-10, global = -1.9316e-13, cumulative = -1.08963e-10
DICPCG:  Solving for p, Initial residual = 0.00255818, Final residual = 9.29508e-07, No Iterations 208
time step continuity errors : sum local = 8.53499e-13, global = -8.3015e-15, cumulative = -1.08972e-10
ExecutionTime = 10.68 s  ClockTime = 11 s

Time = 4.45

Courant Number mean: 0.00373939 max: 0.0551494
smoothSolver:  Solving for Ux, Initial residual = 0.000180462, Final residual = 4.99486e-06, No Iterations 1
smoothSolver:  Solving for Uy, Initial residual = 0.000880189, Final residual = 6.85679e-06, No Iterations 1
DICPCG:  Solving for p, Initial residual = 0.00447474, Final residual = 0.000216246, No Iterations 57
time step continuity errors : sum local = 1.98029e-10, global = -1.92332e-13, cumulative = -1.09164e-10
DICPCG:  Solving for p, Initial residual = 0.00250857, Final residual = 9.23615e-07, No Iterations 208
time step continuity errors : sum local = 8.43768e-13, global = -8.16364e-15, cumulative = -1.09172e-10
ExecutionTime = 10.8 s  ClockTime = 11 s

Time = 4.5

Courant Number mean: 0.00373907 max: 0.0550688
smoothSolver:  Solving for Ux, Initial residual = 0.000177961, Final residual = 4.91276e-06, No Iterations 1
smoothSolver:  Solving for Uy, Initial residual = 0.000870839, Final residual = 6.77328e-06, No Iterations 1
DICPCG:  Solving for p, Initial residual = 0.0044542, Final residual = 0.000215028, No Iterations 57
time step continuity errors : sum local = 1.95924e-10, global = -1.89673e-13, cumulative = -1.09362e-10
DICPCG:  Solving for p, Initial residual = 0.00248932, Final residual = 9.09711e-07, No Iterations 208
time step continuity errors : sum local = 8.26953e-13, global = -7.92967e-15, cumulative = -1.0937e-10
ExecutionTime = 10.91 s  ClockTime = 11 s

Time = 4.55

Courant Number mean: 0.00373875 max: 0.0549881
smoothSolver:  Solving for Ux, Initial residual = 0.000175518, Final residual = 4.83264e-06, No Iterations 1
smoothSolver:  Solving for Uy, Initial residual = 0.000861667, Final residual = 6.692e-06, No Iterations 1
DICPCG:  Solving for p, Initial residual = 0.00441691, Final residual = 0.000212433, No Iterations 57
time step continuity errors : sum local = 1.92598e-10, global = -1.86761e-13, cumulative = -1.09557e-10
DICPCG:  Solving for p, Initial residual = 0.00246915, Final residual = 8.87698e-07, No Iterations 208
time step continuity errors : sum local = 8.02924e-13, global = -7.85098e-15, cumulative = -1.09564e-10
ExecutionTime = 11.01 s  ClockTime = 11 s

Time = 4.6

Courant Number mean: 0.00373843 max: 0.0549073
smoothSolver:  Solving for Ux, Initial residual = 0.000173133, Final residual = 4.75448e-06, No Iterations 1
smoothSolver:  Solving for Uy, Initial residual = 0.000852675, Final residual = 6.6137e-06, No Iterations 1
DICPCG:  Solving for p, Initial residual = 0.00441494, Final residual = 0.000210784, No Iterations 57
time step continuity errors : sum local = 1.90168e-10, global = -1.83794e-13, cumulative = -1.09748e-10
DICPCG:  Solving for p, Initial residual = 0.00245282, Final residual = 8.8585e-07, No Iterations 208
time step continuity errors : sum local = 7.9739e-13, global = -7.5862e-15, cumulative = -1.09756e-10
ExecutionTime = 11.12 s  ClockTime = 11 s

Time = 4.65

Courant Number mean: 0.00373812 max: 0.0548266
smoothSolver:  Solving for Ux, Initial residual = 0.000170802, Final residual = 4.67825e-06, No Iterations 1
smoothSolver:  Solving for Uy, Initial residual = 0.000843893, Final residual = 6.53795e-06, No Iterations 1
DICPCG:  Solving for p, Initial residual = 0.00434282, Final residual = 0.000210453, No Iterations 57
time step continuity errors : sum local = 1.88942e-10, global = -1.81038e-13, cumulative = -1.09937e-10
DICPCG:  Solving for p, Initial residual = 0.00243037, Final residual = 8.89211e-07, No Iterations 208
time step continuity errors : sum local = 7.96465e-13, global = -7.87333e-15, cumulative = -1.09945e-10
ExecutionTime = 11.23 s  ClockTime = 12 s

Time = 4.7

Courant Number mean: 0.00373781 max: 0.0547459
smoothSolver:  Solving for Ux, Initial residual = 0.000168527, Final residual = 4.60367e-06, No Iterations 1
smoothSolver:  Solving for Uy, Initial residual = 0.000835214, Final residual = 6.46136e-06, No Iterations 1
DICPCG:  Solving for p, Initial residual = 0.00432905, Final residual = 0.000208754, No Iterations 57
time step continuity errors : sum local = 1.86497e-10, global = -1.77874e-13, cumulative = -1.10123e-10
DICPCG:  Solving for p, Initial residual = 0.00241279, Final residual = 8.79184e-07, No Iterations 208
time step continuity errors : sum local = 7.83633e-13, global = -7.8809e-15, cumulative = -1.10131e-10
ExecutionTime = 11.34 s  ClockTime = 12 s

Time = 4.75

Courant Number mean: 0.00373751 max: 0.0546652
smoothSolver:  Solving for Ux, Initial residual = 0.000166305, Final residual = 4.53086e-06, No Iterations 1
smoothSolver:  Solving for Uy, Initial residual = 0.000826695, Final residual = 6.38592e-06, No Iterations 1
DICPCG:  Solving for p, Initial residual = 0.00426654, Final residual = 0.000205854, No Iterations 57
time step continuity errors : sum local = 1.83024e-10, global = -1.75593e-13, cumulative = -1.10306e-10
DICPCG:  Solving for p, Initial residual = 0.00238963, Final residual = 8.66775e-07, No Iterations 208
time step continuity errors : sum local = 7.68931e-13, global = -7.40997e-15, cumulative = -1.10314e-10
ExecutionTime = 11.45 s  ClockTime = 12 s

Time = 4.8

Courant Number mean: 0.0037372 max: 0.0545846
smoothSolver:  Solving for Ux, Initial residual = 0.000164131, Final residual = 4.45997e-06, No Iterations 1
smoothSolver:  Solving for Uy, Initial residual = 0.00081835, Final residual = 6.3141e-06, No Iterations 1
DICPCG:  Solving for p, Initial residual = 0.00425067, Final residual = 0.000206254, No Iterations 57
time step continuity errors : sum local = 1.82534e-10, global = -1.7318e-13, cumulative = -1.10487e-10
DICPCG:  Solving for p, Initial residual = 0.00237567, Final residual = 8.65973e-07, No Iterations 208
time step continuity errors : sum local = 7.64767e-13, global = -7.18272e-15, cumulative = -1.10494e-10
ExecutionTime = 11.55 s  ClockTime = 12 s

Time = 4.85

Courant Number mean: 0.0037369 max: 0.054504
smoothSolver:  Solving for Ux, Initial residual = 0.000162008, Final residual = 4.39087e-06, No Iterations 1
smoothSolver:  Solving for Uy, Initial residual = 0.000810165, Final residual = 6.24423e-06, No Iterations 1
DICPCG:  Solving for p, Initial residual = 0.0042951, Final residual = 0.000210981, No Iterations 57
time step continuity errors : sum local = 1.85862e-10, global = -1.71073e-13, cumulative = -1.10665e-10
DICPCG:  Solving for p, Initial residual = 0.00236685, Final residual = 8.49891e-07, No Iterations 208
time step continuity errors : sum local = 7.47043e-13, global = -7.43245e-15, cumulative = -1.10672e-10
ExecutionTime = 11.66 s  ClockTime = 12 s

Time = 4.9

Courant Number mean: 0.0037366 max: 0.0544235
smoothSolver:  Solving for Ux, Initial residual = 0.00015993, Final residual = 4.32293e-06, No Iterations 1
smoothSolver:  Solving for Uy, Initial residual = 0.000802178, Final residual = 6.17541e-06, No Iterations 1
DICPCG:  Solving for p, Initial residual = 0.00416916, Final residual = 0.000202048, No Iterations 57
time step continuity errors : sum local = 1.77166e-10, global = -1.69152e-13, cumulative = -1.10842e-10
DICPCG:  Solving for p, Initial residual = 0.00233313, Final residual = 8.45115e-07, No Iterations 208
time step continuity errors : sum local = 7.39438e-13, global = -6.91203e-15, cumulative = -1.10848e-10
ExecutionTime = 11.77 s  ClockTime = 12 s

Time = 4.95

Courant Number mean: 0.00373631 max: 0.0543431
smoothSolver:  Solving for Ux, Initial residual = 0.000157902, Final residual = 4.25688e-06, No Iterations 1
smoothSolver:  Solving for Uy, Initial residual = 0.000794322, Final residual = 6.10779e-06, No Iterations 1
DICPCG:  Solving for p, Initial residual = 0.00411328, Final residual = 0.000197826, No Iterations 57
time step continuity errors : sum local = 1.72685e-10, global = -1.6669e-13, cumulative = -1.11015e-10
DICPCG:  Solving for p, Initial residual = 0.0023126, Final residual = 9.89546e-07, No Iterations 207
time step continuity errors : sum local = 8.62011e-13, global = -8.32852e-15, cumulative = -1.11023e-10
ExecutionTime = 11.88 s  ClockTime = 12 s

Time = 5

Courant Number mean: 0.00373601 max: 0.0542627
smoothSolver:  Solving for Ux, Initial residual = 0.000155919, Final residual = 4.19241e-06, No Iterations 1
smoothSolver:  Solving for Uy, Initial residual = 0.000786592, Final residual = 6.04101e-06, No Iterations 1
DICPCG:  Solving for p, Initial residual = 0.00412952, Final residual = 0.00019635, No Iterations 57
time step continuity errors : sum local = 1.70659e-10, global = -1.63666e-13, cumulative = -1.11187e-10
DICPCG:  Solving for p, Initial residual = 0.00229497, Final residual = 9.67063e-07, No Iterations 207
time step continuity errors : sum local = 8.38857e-13, global = -7.98817e-15, cumulative = -1.11195e-10
ExecutionTime = 12.18 s  ClockTime = 13 s

Time = 5.05

Courant Number mean: 0.00373572 max: 0.0541825
smoothSolver:  Solving for Ux, Initial residual = 0.000153979, Final residual = 4.12939e-06, No Iterations 1
smoothSolver:  Solving for Uy, Initial residual = 0.000778991, Final residual = 5.97563e-06, No Iterations 1
DICPCG:  Solving for p, Initial residual = 0.00424834, Final residual = 0.000200804, No Iterations 57
time step continuity errors : sum local = 1.73797e-10, global = -1.61399e-13, cumulative = -1.11357e-10
DICPCG:  Solving for p, Initial residual = 0.00229071, Final residual = 9.7485e-07, No Iterations 207
time step continuity errors : sum local = 8.42088e-13, global = -7.84379e-15, cumulative = -1.11364e-10
ExecutionTime = 12.28 s  ClockTime = 13 s

Time = 5.1

Courant Number mean: 0.00373543 max: 0.0541024
smoothSolver:  Solving for Ux, Initial residual = 0.000152086, Final residual = 4.06783e-06, No Iterations 1
smoothSolver:  Solving for Uy, Initial residual = 0.000771518, Final residual = 5.91422e-06, No Iterations 1
DICPCG:  Solving for p, Initial residual = 0.0043601, Final residual = 0.000207012, No Iterations 57
time step continuity errors : sum local = 1.78439e-10, global = -1.57246e-13, cumulative = -1.11522e-10
DICPCG:  Solving for p, Initial residual = 0.00229423, Final residual = 9.60231e-07, No Iterations 207
time step continuity errors : sum local = 8.26138e-13, global = -7.87859e-15, cumulative = -1.11529e-10
ExecutionTime = 12.39 s  ClockTime = 13 s

Time = 5.15

Courant Number mean: 0.00373515 max: 0.0540224
smoothSolver:  Solving for Ux, Initial residual = 0.00015023, Final residual = 4.00752e-06, No Iterations 1
smoothSolver:  Solving for Uy, Initial residual = 0.000764271, Final residual = 5.85124e-06, No Iterations 1
DICPCG:  Solving for p, Initial residual = 0.00440756, Final residual = 0.000205361, No Iterations 57
time step continuity errors : sum local = 1.76224e-10, global = -1.54068e-13, cumulative = -1.11684e-10
DICPCG:  Solving for p, Initial residual = 0.00229113, Final residual = 9.75176e-07, No Iterations 207
time step continuity errors : sum local = 8.34849e-13, global = -7.5979e-15, cumulative = -1.11691e-10
ExecutionTime = 12.5 s  ClockTime = 13 s

Time = 5.2

Courant Number mean: 0.00373487 max: 0.0539425
smoothSolver:  Solving for Ux, Initial residual = 0.000148405, Final residual = 3.94855e-06, No Iterations 1
smoothSolver:  Solving for Uy, Initial residual = 0.000757126, Final residual = 5.79496e-06, No Iterations 1
DICPCG:  Solving for p, Initial residual = 0.00424621, Final residual = 0.000201388, No Iterations 57
time step continuity errors : sum local = 1.71977e-10, global = -1.54553e-13, cumulative = -1.11846e-10
DICPCG:  Solving for p, Initial residual = 0.00225621, Final residual = 9.29179e-07, No Iterations 207
time step continuity errors : sum local = 7.91681e-13, global = -7.24151e-15, cumulative = -1.11853e-10
ExecutionTime = 12.61 s  ClockTime = 13 s

Time = 5.25

Courant Number mean: 0.00373459 max: 0.0538628
smoothSolver:  Solving for Ux, Initial residual = 0.000146623, Final residual = 3.8906e-06, No Iterations 1
smoothSolver:  Solving for Uy, Initial residual = 0.000750096, Final residual = 5.73487e-06, No Iterations 1
DICPCG:  Solving for p, Initial residual = 0.00403856, Final residual = 0.000194139, No Iterations 57
time step continuity errors : sum local = 1.65023e-10, global = -1.53705e-13, cumulative = -1.12007e-10
DICPCG:  Solving for p, Initial residual = 0.00222064, Final residual = 9.4339e-07, No Iterations 207
time step continuity errors : sum local = 8.00249e-13, global = -7.51705e-15, cumulative = -1.12014e-10
ExecutionTime = 12.72 s  ClockTime = 13 s

Time = 5.3

Courant Number mean: 0.00373431 max: 0.0537833
smoothSolver:  Solving for Ux, Initial residual = 0.000144879, Final residual = 3.83415e-06, No Iterations 1
smoothSolver:  Solving for Uy, Initial residual = 0.000743217, Final residual = 5.67889e-06, No Iterations 1
DICPCG:  Solving for p, Initial residual = 0.003961, Final residual = 0.00019269, No Iterations 57
time step continuity errors : sum local = 1.63073e-10, global = -1.50642e-13, cumulative = -1.12165e-10
DICPCG:  Solving for p, Initial residual = 0.00220615, Final residual = 9.26716e-07, No Iterations 207
time step continuity errors : sum local = 7.82645e-13, global = -7.16984e-15, cumulative = -1.12172e-10
ExecutionTime = 12.83 s  ClockTime = 13 s

Time = 5.35

Courant Number mean: 0.00373404 max: 0.0537039
smoothSolver:  Solving for Ux, Initial residual = 0.000143167, Final residual = 3.77884e-06, No Iterations 1
smoothSolver:  Solving for Uy, Initial residual = 0.000736422, Final residual = 5.62218e-06, No Iterations 1
DICPCG:  Solving for p, Initial residual = 0.00381246, Final residual = 0.000185613, No Iterations 57
time step continuity errors : sum local = 1.56417e-10, global = -1.48589e-13, cumulative = -1.12321e-10
DICPCG:  Solving for p, Initial residual = 0.00217249, Final residual = 9.10387e-07, No Iterations 207
time step continuity errors : sum local = 7.65709e-13, global = -7.02751e-15, cumulative = -1.12328e-10
ExecutionTime = 12.95 s  ClockTime = 13 s

Time = 5.4

Courant Number mean: 0.00373377 max: 0.0536247
smoothSolver:  Solving for Ux, Initial residual = 0.000141499, Final residual = 3.72508e-06, No Iterations 1
smoothSolver:  Solving for Uy, Initial residual = 0.000729699, Final residual = 5.56666e-06, No Iterations 1
DICPCG:  Solving for p, Initial residual = 0.00381846, Final residual = 0.000186852, No Iterations 57
time step continuity errors : sum local = 1.5683e-10, global = -1.46023e-13, cumulative = -1.12474e-10
DICPCG:  Solving for p, Initial residual = 0.00216098, Final residual = 9.07735e-07, No Iterations 207
time step continuity errors : sum local = 7.6048e-13, global = -6.8096e-15, cumulative = -1.1248e-10
ExecutionTime = 13.05 s  ClockTime = 13 s

Time = 5.45

Courant Number mean: 0.0037335 max: 0.0535457
smoothSolver:  Solving for Ux, Initial residual = 0.000139868, Final residual = 3.67246e-06, No Iterations 1
[...]
time step continuity errors : sum local = 4.449e-13, global = 4.96499e-14, cumulative = -1.01151e-10
ExecutionTime = 79.58 s  ClockTime = 80 s

Time = 38.7

Courant Number mean: 0.00366819 max: 0.0345298
smoothSolver:  Solving for Ux, Initial residual = 2.13259e-05, Final residual = 2.06592e-07, No Iterations 1
smoothSolver:  Solving for Uy, Initial residual = 0.000167678, Final residual = 6.33354e-07, No Iterations 1
DICPCG:  Solving for p, Initial residual = 0.000383209, Final residual = 1.90752e-05, No Iterations 52
time step continuity errors : sum local = 8.57323e-12, global = 4.89315e-14, cumulative = -1.01102e-10
DICPCG:  Solving for p, Initial residual = 0.000241319, Final residual = 9.90384e-07, No Iterations 111
time step continuity errors : sum local = 4.45057e-13, global = 4.9993e-14, cumulative = -1.01052e-10
ExecutionTime = 79.66 s  ClockTime = 80 s

Time = 38.75

Courant Number mean: 0.00366813 max: 0.0345208
smoothSolver:  Solving for Ux, Initial residual = 2.1306e-05, Final residual = 2.06233e-07, No Iterations 1
smoothSolver:  Solving for Uy, Initial residual = 0.000167554, Final residual = 6.32366e-07, No Iterations 1
DICPCG:  Solving for p, Initial residual = 0.000382831, Final residual = 1.90536e-05, No Iterations 52
time step continuity errors : sum local = 8.56098e-12, global = 4.89932e-14, cumulative = -1.01003e-10
DICPCG:  Solving for p, Initial residual = 0.00024099, Final residual = 9.89656e-07, No Iterations 111
time step continuity errors : sum local = 4.44598e-13, global = 4.99935e-14, cumulative = -1.00953e-10
ExecutionTime = 79.73 s  ClockTime = 81 s

Time = 38.8

Courant Number mean: 0.00366808 max: 0.0345119
smoothSolver:  Solving for Ux, Initial residual = 2.12861e-05, Final residual = 2.05875e-07, No Iterations 1
smoothSolver:  Solving for Uy, Initial residual = 0.000167431, Final residual = 6.31385e-07, No Iterations 1
DICPCG:  Solving for p, Initial residual = 0.000402414, Final residual = 1.97076e-05, No Iterations 51
time step continuity errors : sum local = 8.85202e-12, global = 4.86507e-14, cumulative = -1.00904e-10
DICPCG:  Solving for p, Initial residual = 0.000242001, Final residual = 9.56744e-07, No Iterations 116
time step continuity errors : sum local = 4.29668e-13, global = 5.81046e-14, cumulative = -1.00846e-10
ExecutionTime = 79.81 s  ClockTime = 81 s

Time = 38.85

Courant Number mean: 0.00366803 max: 0.0345029
smoothSolver:  Solving for Ux, Initial residual = 2.12665e-05, Final residual = 2.05521e-07, No Iterations 1
smoothSolver:  Solving for Uy, Initial residual = 0.000167304, Final residual = 6.30318e-07, No Iterations 1
DICPCG:  Solving for p, Initial residual = 0.000399993, Final residual = 1.95437e-05, No Iterations 51
time step continuity errors : sum local = 8.7755e-12, global = 5.22376e-14, cumulative = -1.00794e-10
DICPCG:  Solving for p, Initial residual = 0.000241205, Final residual = 9.65431e-07, No Iterations 116
time step continuity errors : sum local = 4.33426e-13, global = 5.96649e-14, cumulative = -1.00734e-10
ExecutionTime = 79.89 s  ClockTime = 81 s

Time = 38.9

Courant Number mean: 0.00366798 max: 0.034494
smoothSolver:  Solving for Ux, Initial residual = 2.12466e-05, Final residual = 2.05166e-07, No Iterations 1
smoothSolver:  Solving for Uy, Initial residual = 0.000167181, Final residual = 6.29302e-07, No Iterations 1
DICPCG:  Solving for p, Initial residual = 0.000387866, Final residual = 1.91742e-05, No Iterations 52
time step continuity errors : sum local = 8.60683e-12, global = 5.34498e-14, cumulative = -1.00681e-10
DICPCG:  Solving for p, Initial residual = 0.000240106, Final residual = 9.99761e-07, No Iterations 111
time step continuity errors : sum local = 4.48702e-13, global = 5.27055e-14, cumulative = -1.00628e-10
ExecutionTime = 79.97 s  ClockTime = 81 s

Time = 38.95

Courant Number mean: 0.00366793 max: 0.034485
smoothSolver:  Solving for Ux, Initial residual = 2.12268e-05, Final residual = 2.0481e-07, No Iterations 1
smoothSolver:  Solving for Uy, Initial residual = 0.00016706, Final residual = 6.28354e-07, No Iterations 1
DICPCG:  Solving for p, Initial residual = 0.000387912, Final residual = 1.914e-05, No Iterations 52
time step continuity errors : sum local = 8.58888e-12, global = 5.07327e-14, cumulative = -1.00578e-10
DICPCG:  Solving for p, Initial residual = 0.000239743, Final residual = 9.92264e-07, No Iterations 111
time step continuity errors : sum local = 4.45202e-13, global = 5.11747e-14, cumulative = -1.00526e-10
ExecutionTime = 80.04 s  ClockTime = 81 s

Time = 39

Courant Number mean: 0.00366788 max: 0.0344761
smoothSolver:  Solving for Ux, Initial residual = 2.12072e-05, Final residual = 2.04453e-07, No Iterations 1
smoothSolver:  Solving for Uy, Initial residual = 0.000166938, Final residual = 6.27376e-07, No Iterations 1
DICPCG:  Solving for p, Initial residual = 0.000388942, Final residual = 1.91229e-05, No Iterations 52
time step continuity errors : sum local = 8.57858e-12, global = 4.81754e-14, cumulative = -1.00478e-10
DICPCG:  Solving for p, Initial residual = 0.000239426, Final residual = 9.81676e-07, No Iterations 111
time step continuity errors : sum local = 4.40316e-13, global = 4.90528e-14, cumulative = -1.00429e-10
ExecutionTime = 80.3 s  ClockTime = 81 s

Time = 39.05

Courant Number mean: 0.00366782 max: 0.0344672
smoothSolver:  Solving for Ux, Initial residual = 2.11875e-05, Final residual = 2.04098e-07, No Iterations 1
smoothSolver:  Solving for Uy, Initial residual = 0.000166817, Final residual = 6.26401e-07, No Iterations 1
DICPCG:  Solving for p, Initial residual = 0.000389044, Final residual = 1.9437e-05, No Iterations 51
time step continuity errors : sum local = 8.71686e-12, global = 4.5631e-14, cumulative = -1.00384e-10
DICPCG:  Solving for p, Initial residual = 0.000239186, Final residual = 9.7387e-07, No Iterations 111
time step continuity errors : sum local = 4.36683e-13, global = 4.75313e-14, cumulative = -1.00336e-10
ExecutionTime = 80.37 s  ClockTime = 81 s

Time = 39.1

Courant Number mean: 0.00366777 max: 0.0344584
smoothSolver:  Solving for Ux, Initial residual = 2.11679e-05, Final residual = 2.03747e-07, No Iterations 1
smoothSolver:  Solving for Uy, Initial residual = 0.000166696, Final residual = 6.2544e-07, No Iterations 1
DICPCG:  Solving for p, Initial residual = 0.00038831, Final residual = 1.9334e-05, No Iterations 51
time step continuity errors : sum local = 8.668e-12, global = 4.44994e-14, cumulative = -1.00291e-10
DICPCG:  Solving for p, Initial residual = 0.00023881, Final residual = 9.95595e-07, No Iterations 110
time step continuity errors : sum local = 4.4629e-13, global = 4.57601e-14, cumulative = -1.00246e-10
ExecutionTime = 80.46 s  ClockTime = 81 s

Time = 39.15

Courant Number mean: 0.00366772 max: 0.0344495
smoothSolver:  Solving for Ux, Initial residual = 2.11483e-05, Final residual = 2.03395e-07, No Iterations 1
smoothSolver:  Solving for Uy, Initial residual = 0.000166576, Final residual = 6.245e-07, No Iterations 1
DICPCG:  Solving for p, Initial residual = 0.000391218, Final residual = 1.94181e-05, No Iterations 51
time step continuity errors : sum local = 8.70311e-12, global = 4.38757e-14, cumulative = -1.00202e-10
DICPCG:  Solving for p, Initial residual = 0.000238754, Final residual = 9.88349e-07, No Iterations 110
time step continuity errors : sum local = 4.42907e-13, global = 4.55358e-14, cumulative = -1.00156e-10
ExecutionTime = 80.53 s  ClockTime = 81 s

Time = 39.2

Courant Number mean: 0.00366767 max: 0.0344407
smoothSolver:  Solving for Ux, Initial residual = 2.11288e-05, Final residual = 2.03044e-07, No Iterations 1
smoothSolver:  Solving for Uy, Initial residual = 0.000166455, Final residual = 6.23523e-07, No Iterations 1
DICPCG:  Solving for p, Initial residual = 0.000391182, Final residual = 1.9336e-05, No Iterations 51
time step continuity errors : sum local = 8.6637e-12, global = 4.46355e-14, cumulative = -1.00112e-10
DICPCG:  Solving for p, Initial residual = 0.000238422, Final residual = 9.87484e-07, No Iterations 110
time step continuity errors : sum local = 4.4239e-13, global = 4.57078e-14, cumulative = -1.00066e-10
ExecutionTime = 80.6 s  ClockTime = 81 s

Time = 39.25

Courant Number mean: 0.00366762 max: 0.0344319
smoothSolver:  Solving for Ux, Initial residual = 2.11093e-05, Final residual = 2.02693e-07, No Iterations 1
smoothSolver:  Solving for Uy, Initial residual = 0.000166335, Final residual = 6.22576e-07, No Iterations 1
DICPCG:  Solving for p, Initial residual = 0.000392129, Final residual = 1.92658e-05, No Iterations 51
time step continuity errors : sum local = 8.62981e-12, global = 4.50915e-14, cumulative = -1.00021e-10
DICPCG:  Solving for p, Initial residual = 0.000238244, Final residual = 9.87776e-07, No Iterations 110
time step continuity errors : sum local = 4.42398e-13, global = 4.57377e-14, cumulative = -9.99752e-11
ExecutionTime = 80.68 s  ClockTime = 82 s

Time = 39.3

Courant Number mean: 0.00366757 max: 0.0344231
smoothSolver:  Solving for Ux, Initial residual = 2.10898e-05, Final residual = 2.02342e-07, No Iterations 1
smoothSolver:  Solving for Uy, Initial residual = 0.000166216, Final residual = 6.21646e-07, No Iterations 1
DICPCG:  Solving for p, Initial residual = 0.000393926, Final residual = 1.91945e-05, No Iterations 51
time step continuity errors : sum local = 8.59549e-12, global = 4.49862e-14, cumulative = -9.99302e-11
DICPCG:  Solving for p, Initial residual = 0.000238128, Final residual = 9.84553e-07, No Iterations 110
time step continuity errors : sum local = 4.40835e-13, global = 4.5292e-14, cumulative = -9.98849e-11
ExecutionTime = 80.75 s  ClockTime = 82 s

Time = 39.35

Courant Number mean: 0.00366752 max: 0.0344143
smoothSolver:  Solving for Ux, Initial residual = 2.10704e-05, Final residual = 2.01992e-07, No Iterations 1
smoothSolver:  Solving for Uy, Initial residual = 0.000166098, Final residual = 6.20724e-07, No Iterations 1
DICPCG:  Solving for p, Initial residual = 0.000398285, Final residual = 1.90879e-05, No Iterations 51
time step continuity errors : sum local = 8.54551e-12, global = 4.41283e-14, cumulative = -9.98407e-11
DICPCG:  Solving for p, Initial residual = 0.000238271, Final residual = 9.82669e-07, No Iterations 110
time step continuity errors : sum local = 4.39876e-13, global = 4.39117e-14, cumulative = -9.97968e-11
ExecutionTime = 80.82 s  ClockTime = 82 s

Time = 39.4

Courant Number mean: 0.00366747 max: 0.0344056
smoothSolver:  Solving for Ux, Initial residual = 2.10509e-05, Final residual = 2.01643e-07, No Iterations 1
smoothSolver:  Solving for Uy, Initial residual = 0.000165981, Final residual = 6.19818e-07, No Iterations 1
DICPCG:  Solving for p, Initial residual = 0.000411286, Final residual = 2.05014e-05, No Iterations 51
time step continuity errors : sum local = 9.17544e-12, global = 4.19492e-14, cumulative = -9.97549e-11
DICPCG:  Solving for p, Initial residual = 0.000240236, Final residual = 9.85372e-07, No Iterations 111
time step continuity errors : sum local = 4.40925e-13, global = 5.15473e-14, cumulative = -9.97033e-11
ExecutionTime = 80.9 s  ClockTime = 82 s

Time = 39.45

Courant Number mean: 0.00366741 max: 0.0343968
smoothSolver:  Solving for Ux, Initial residual = 2.10323e-05, Final residual = 2.01324e-07, No Iterations 1
smoothSolver:  Solving for Uy, Initial residual = 0.000165848, Final residual = 6.18732e-07, No Iterations 1
DICPCG:  Solving for p, Initial residual = 0.000392178, Final residual = 1.93825e-05, No Iterations 52
time step continuity errors : sum local = 8.67169e-12, global = 5.64134e-14, cumulative = -9.96469e-11
DICPCG:  Solving for p, Initial residual = 0.000237914, Final residual = 9.79574e-07, No Iterations 116
time step continuity errors : sum local = 4.38188e-13, global = 6.39444e-14, cumulative = -9.9583e-11
ExecutionTime = 80.97 s  ClockTime = 82 s

Time = 39.5

Courant Number mean: 0.00366736 max: 0.0343881
smoothSolver:  Solving for Ux, Initial residual = 2.10134e-05, Final residual = 2.00988e-07, No Iterations 1
smoothSolver:  Solving for Uy, Initial residual = 0.000165722, Final residual = 6.17707e-07, No Iterations 1
DICPCG:  Solving for p, Initial residual = 0.000384059, Final residual = 1.89273e-05, No Iterations 52
time step continuity errors : sum local = 8.46536e-12, global = 6.28734e-14, cumulative = -9.95201e-11
DICPCG:  Solving for p, Initial residual = 0.000236217, Final residual = 9.83636e-07, No Iterations 141
time step continuity errors : sum local = 4.39872e-13, global = 5.57327e-14, cumulative = -9.94644e-11
ExecutionTime = 81.05 s  ClockTime = 82 s

Time = 39.55

Courant Number mean: 0.00366731 max: 0.0343794
smoothSolver:  Solving for Ux, Initial residual = 2.0994e-05, Final residual = 2.00645e-07, No Iterations 1
smoothSolver:  Solving for Uy, Initial residual = 0.000165602, Final residual = 6.16756e-07, No Iterations 1
DICPCG:  Solving for p, Initial residual = 0.000383039, Final residual = 1.90583e-05, No Iterations 51
time step continuity errors : sum local = 8.52135e-12, global = 4.59895e-14, cumulative = -9.94184e-11
DICPCG:  Solving for p, Initial residual = 0.000235546, Final residual = 9.99298e-07, No Iterations 110
time step continuity errors : sum local = 4.4674e-13, global = 5.03337e-14, cumulative = -9.93681e-11
ExecutionTime = 81.13 s  ClockTime = 82 s

Time = 39.6

Courant Number mean: 0.00366726 max: 0.0343707
smoothSolver:  Solving for Ux, Initial residual = 2.09751e-05, Final residual = 2.00306e-07, No Iterations 1
smoothSolver:  Solving for Uy, Initial residual = 0.00016548, Final residual = 6.15762e-07, No Iterations 1
DICPCG:  Solving for p, Initial residual = 0.000449584, Final residual = 2.16799e-05, No Iterations 51
time step continuity errors : sum local = 9.69064e-12, global = 4.82602e-14, cumulative = -9.93198e-11
DICPCG:  Solving for p, Initial residual = 0.000242733, Final residual = 9.77584e-07, No Iterations 116
time step continuity errors : sum local = 4.36903e-13, global = 6.21509e-14, cumulative = -9.92576e-11
ExecutionTime = 81.2 s  ClockTime = 82 s

Time = 39.65

Courant Number mean: 0.00366721 max: 0.034362
smoothSolver:  Solving for Ux, Initial residual = 2.09568e-05, Final residual = 2.00011e-07, No Iterations 1
smoothSolver:  Solving for Uy, Initial residual = 0.000165344, Final residual = 6.14689e-07, No Iterations 1
DICPCG:  Solving for p, Initial residual = 0.000377858, Final residual = 1.87727e-05, No Iterations 51
time step continuity errors : sum local = 8.38862e-12, global = 5.88411e-14, cumulative = -9.91988e-11
DICPCG:  Solving for p, Initial residual = 0.000234971, Final residual = 9.73934e-07, No Iterations 116
time step continuity errors : sum local = 4.35142e-13, global = 6.18897e-14, cumulative = -9.91369e-11
ExecutionTime = 81.28 s  ClockTime = 82 s

Time = 39.7

Courant Number mean: 0.00366716 max: 0.0343534
smoothSolver:  Solving for Ux, Initial residual = 2.09375e-05, Final residual = 1.99664e-07, No Iterations 1
smoothSolver:  Solving for Uy, Initial residual = 0.000165228, Final residual = 6.13785e-07, No Iterations 1
DICPCG:  Solving for p, Initial residual = 0.000375478, Final residual = 1.85421e-05, No Iterations 52
time step continuity errors : sum local = 8.28313e-12, global = 5.42157e-14, cumulative = -9.90827e-11
DICPCG:  Solving for p, Initial residual = 0.000234503, Final residual = 9.8516e-07, No Iterations 111
time step continuity errors : sum local = 4.40026e-13, global = 5.22367e-14, cumulative = -9.90305e-11
ExecutionTime = 81.35 s  ClockTime = 82 s

Time = 39.75

Courant Number mean: 0.00366711 max: 0.0343448
smoothSolver:  Solving for Ux, Initial residual = 2.09183e-05, Final residual = 1.99319e-07, No Iterations 1
smoothSolver:  Solving for Uy, Initial residual = 0.000165112, Final residual = 6.12892e-07, No Iterations 1
DICPCG:  Solving for p, Initial residual = 0.000373906, Final residual = 1.84087e-05, No Iterations 52
time step continuity errors : sum local = 8.2211e-12, global = 4.76137e-14, cumulative = -9.89828e-11
DICPCG:  Solving for p, Initial residual = 0.000234063, Final residual = 9.95068e-07, No Iterations 110
time step continuity errors : sum local = 4.44321e-13, global = 4.72386e-14, cumulative = -9.89356e-11
ExecutionTime = 81.43 s  ClockTime = 82 s

Time = 39.8

Courant Number mean: 0.00366706 max: 0.0343361
smoothSolver:  Solving for Ux, Initial residual = 2.08993e-05, Final residual = 1.98977e-07, No Iterations 1
smoothSolver:  Solving for Uy, Initial residual = 0.000164994, Final residual = 6.11976e-07, No Iterations 1
DICPCG:  Solving for p, Initial residual = 0.00037266, Final residual = 1.83731e-05, No Iterations 52
time step continuity errors : sum local = 8.2028e-12, global = 4.23891e-14, cumulative = -9.88932e-11
DICPCG:  Solving for p, Initial residual = 0.00023371, Final residual = 9.76993e-07, No Iterations 110
time step continuity errors : sum local = 4.36123e-13, global = 4.31236e-14, cumulative = -9.88501e-11
ExecutionTime = 81.5 s  ClockTime = 82 s

Time = 39.85

Courant Number mean: 0.00366701 max: 0.0343275
smoothSolver:  Solving for Ux, Initial residual = 2.08804e-05, Final residual = 1.98636e-07, No Iterations 1
smoothSolver:  Solving for Uy, Initial residual = 0.000164876, Final residual = 6.11062e-07, No Iterations 1
DICPCG:  Solving for p, Initial residual = 0.00037239, Final residual = 1.83428e-05, No Iterations 52
time step continuity errors : sum local = 8.18692e-12, global = 3.85966e-14, cumulative = -9.88115e-11
DICPCG:  Solving for p, Initial residual = 0.000233382, Final residual = 9.62234e-07, No Iterations 110
time step continuity errors : sum local = 4.2941e-13, global = 4.02724e-14, cumulative = -9.87712e-11
ExecutionTime = 81.57 s  ClockTime = 82 s

Time = 39.9

Courant Number mean: 0.00366696 max: 0.034319
smoothSolver:  Solving for Ux, Initial residual = 2.08615e-05, Final residual = 1.98297e-07, No Iterations 1
smoothSolver:  Solving for Uy, Initial residual = 0.000164758, Final residual = 6.10149e-07, No Iterations 1
DICPCG:  Solving for p, Initial residual = 0.000373283, Final residual = 1.83454e-05, No Iterations 52
time step continuity errors : sum local = 8.18571e-12, global = 3.70611e-14, cumulative = -9.87342e-11
DICPCG:  Solving for p, Initial residual = 0.000233216, Final residual = 9.54292e-07, No Iterations 110
time step continuity errors : sum local = 4.25743e-13, global = 3.92202e-14, cumulative = -9.86949e-11
ExecutionTime = 81.66 s  ClockTime = 83 s

Time = 39.95

Courant Number mean: 0.00366691 max: 0.0343104
smoothSolver:  Solving for Ux, Initial residual = 2.08427e-05, Final residual = 1.97961e-07, No Iterations 1
smoothSolver:  Solving for Uy, Initial residual = 0.000164641, Final residual = 6.09226e-07, No Iterations 1
DICPCG:  Solving for p, Initial residual = 0.000373239, Final residual = 1.86095e-05, No Iterations 51
time step continuity errors : sum local = 8.30113e-12, global = 3.76832e-14, cumulative = -9.86573e-11
DICPCG:  Solving for p, Initial residual = 0.000232868, Final residual = 9.54593e-07, No Iterations 110
time step continuity errors : sum local = 4.25754e-13, global = 4.03467e-14, cumulative = -9.86169e-11
ExecutionTime = 81.72 s  ClockTime = 83 s

Time = 40

Courant Number mean: 0.00366686 max: 0.0343019
smoothSolver:  Solving for Ux, Initial residual = 2.08239e-05, Final residual = 1.97627e-07, No Iterations 1
smoothSolver:  Solving for Uy, Initial residual = 0.000164523, Final residual = 6.08313e-07, No Iterations 1
DICPCG:  Solving for p, Initial residual = 0.000373398, Final residual = 1.84611e-05, No Iterations 51
time step continuity errors : sum local = 8.23253e-12, global = 4.05797e-14, cumulative = -9.85763e-11
DICPCG:  Solving for p, Initial residual = 0.000232634, Final residual = 9.6393e-07, No Iterations 110
time step continuity errors : sum local = 4.29793e-13, global = 4.24266e-14, cumulative = -9.85339e-11
ExecutionTime = 81.98 s  ClockTime = 83 s

End

