/*---------------------------------------------------------------------------*\
  =========                 |
  \\      /  F ield         | OpenFOAM: The Open Source CFD Toolbox
   \\    /   O peration     | Website:  https://openfoam.org
    \\  /    A nd           | Version:  7
     \\/     M anipulation  |
\*---------------------------------------------------------------------------*/
Build  : 7-49b2b3b8b082
Exec   : icoFoam
Date   : May 14 2021
Time   : 16:11:21
Host   : "c401-094.stampede2.tacc.utexas.edu"
PID    : 186408
I/O    : uncollated
Case   : /work2/06782/kenmeyer/stampede2/final_serial/COE347/finalProject/noslip/wedge05
nProcs : 1
sigFpe : Enabling floating point exception trapping (FOAM_SIGFPE).
fileModificationChecking : Monitoring run-time modified files using timeStampMaster (fileModificationSkew 10)
allowSystemOperations : Allowing user-supplied system call operations

// * * * * * * * * * * * * * * * * * * * * * * * * * * * * * * * * * * * * * //
Create time

Create mesh for time = 0

Reading transportProperties

Reading field p

Reading field U

Reading/calculating face flux field phi


Starting time loop

Time = 0.05

Courant Number mean: 0.00377291 max: 0.0843347
smoothSolver:  Solving for Ux, Initial residual = 1, Final residual = 2.70148e-06, No Iterations 7
smoothSolver:  Solving for Uy, Initial residual = 0, Final residual = 0, No Iterations 0
DICPCG:  Solving for p, Initial residual = 1, Final residual = 0.0493636, No Iterations 187
time step continuity errors : sum local = 1.53985e-07, global = 1.07354e-09, cumulative = 1.07354e-09
DICPCG:  Solving for p, Initial residual = 0.159619, Final residual = 9.74168e-07, No Iterations 253
time step continuity errors : sum local = 1.64371e-11, global = -1.38437e-13, cumulative = 1.07341e-09
ExecutionTime = 0.41 s  ClockTime = 0 s

Time = 0.1

Courant Number mean: 0.00378526 max: 0.121391
smoothSolver:  Solving for Ux, Initial residual = 0.218521, Final residual = 3.08154e-06, No Iterations 5
smoothSolver:  Solving for Uy, Initial residual = 0.178977, Final residual = 2.74255e-06, No Iterations 5
DICPCG:  Solving for p, Initial residual = 0.182851, Final residual = 0.00875658, No Iterations 187
time step continuity errors : sum local = 1.43942e-07, global = -1.13723e-09, cumulative = -6.38208e-11
DICPCG:  Solving for p, Initial residual = 0.496812, Final residual = 9.29137e-07, No Iterations 262
time step continuity errors : sum local = 4.99119e-12, global = -2.52469e-14, cumulative = -6.38461e-11
ExecutionTime = 0.58 s  ClockTime = 1 s

Time = 0.15

Courant Number mean: 0.00378312 max: 0.112652
smoothSolver:  Solving for Ux, Initial residual = 0.0171319, Final residual = 3.47625e-06, No Iterations 4
smoothSolver:  Solving for Uy, Initial residual = 0.00828989, Final residual = 6.40599e-06, No Iterations 3
DICPCG:  Solving for p, Initial residual = 0.198585, Final residual = 0.0094575, No Iterations 55
time step continuity errors : sum local = 3.61712e-08, global = -4.79077e-11, cumulative = -1.11754e-10
DICPCG:  Solving for p, Initial residual = 0.0469564, Final residual = 8.82088e-07, No Iterations 240
time step continuity errors : sum local = 3.14432e-12, global = -4.88326e-14, cumulative = -1.11803e-10
ExecutionTime = 0.71 s  ClockTime = 1 s

Time = 0.2

Courant Number mean: 0.00377908 max: 0.101068
smoothSolver:  Solving for Ux, Initial residual = 0.0130202, Final residual = 1.99569e-06, No Iterations 4
smoothSolver:  Solving for Uy, Initial residual = 0.0117881, Final residual = 3.28872e-06, No Iterations 3
DICPCG:  Solving for p, Initial residual = 0.0617003, Final residual = 0.00298795, No Iterations 53
time step continuity errors : sum local = 1.1088e-08, global = 6.49444e-11, cumulative = -4.68582e-11
DICPCG:  Solving for p, Initial residual = 0.0126587, Final residual = 9.55161e-07, No Iterations 220
time step continuity errors : sum local = 3.46163e-12, global = -3.73082e-14, cumulative = -4.68955e-11
ExecutionTime = 0.82 s  ClockTime = 1 s

Time = 0.25

Courant Number mean: 0.00377568 max: 0.0946789
smoothSolver:  Solving for Ux, Initial residual = 0.00931429, Final residual = 6.9956e-06, No Iterations 3
smoothSolver:  Solving for Uy, Initial residual = 0.00993581, Final residual = 3.05606e-06, No Iterations 3
DICPCG:  Solving for p, Initial residual = 0.0408162, Final residual = 0.00199329, No Iterations 54
time step continuity errors : sum local = 6.94273e-09, global = 4.04143e-11, cumulative = -6.48125e-12
DICPCG:  Solving for p, Initial residual = 0.00668219, Final residual = 9.36211e-07, No Iterations 216
time step continuity errors : sum local = 3.21e-12, global = -9.69829e-15, cumulative = -6.49095e-12
ExecutionTime = 0.94 s  ClockTime = 1 s

Time = 0.3

Courant Number mean: 0.00377265 max: 0.0914386
smoothSolver:  Solving for Ux, Initial residual = 0.00732036, Final residual = 5.23217e-06, No Iterations 3
smoothSolver:  Solving for Uy, Initial residual = 0.00877483, Final residual = 2.67025e-06, No Iterations 3
DICPCG:  Solving for p, Initial residual = 0.0317679, Final residual = 0.00151352, No Iterations 56
time step continuity errors : sum local = 5.04271e-09, global = 4.51334e-11, cumulative = 3.86425e-11
DICPCG:  Solving for p, Initial residual = 0.00495187, Final residual = 9.37828e-07, No Iterations 214
time step continuity errors : sum local = 3.08237e-12, global = -2.10841e-14, cumulative = 3.86214e-11
ExecutionTime = 1.06 s  ClockTime = 1 s

Time = 0.35

Courant Number mean: 0.00376991 max: 0.0881868
smoothSolver:  Solving for Ux, Initial residual = 0.00604405, Final residual = 4.11226e-06, No Iterations 3
smoothSolver:  Solving for Uy, Initial residual = 0.00787889, Final residual = 2.36588e-06, No Iterations 3
DICPCG:  Solving for p, Initial residual = 0.0269568, Final residual = 0.00130205, No Iterations 56
time step continuity errors : sum local = 4.16954e-09, global = 4.37629e-11, cumulative = 8.23843e-11
DICPCG:  Solving for p, Initial residual = 0.00398487, Final residual = 9.87811e-07, No Iterations 213
time step continuity errors : sum local = 3.12153e-12, global = -1.96127e-14, cumulative = 8.23647e-11
ExecutionTime = 1.17 s  ClockTime = 1 s

Time = 0.4

Courant Number mean: 0.00376739 max: 0.0850715
smoothSolver:  Solving for Ux, Initial residual = 0.0051549, Final residual = 3.34818e-06, No Iterations 3
smoothSolver:  Solving for Uy, Initial residual = 0.00715929, Final residual = 2.11493e-06, No Iterations 3
DICPCG:  Solving for p, Initial residual = 0.0234703, Final residual = 0.00112626, No Iterations 56
time step continuity errors : sum local = 3.47622e-09, global = 4.21235e-11, cumulative = 1.24488e-10
DICPCG:  Solving for p, Initial residual = 0.00328463, Final residual = 9.48664e-07, No Iterations 213
time step continuity errors : sum local = 2.89253e-12, global = -1.76629e-14, cumulative = 1.24471e-10
ExecutionTime = 1.28 s  ClockTime = 1 s

Time = 0.45

Courant Number mean: 0.00376506 max: 0.0821541
smoothSolver:  Solving for Ux, Initial residual = 0.00449821, Final residual = 2.79702e-06, No Iterations 3
smoothSolver:  Solving for Uy, Initial residual = 0.00656147, Final residual = 1.90777e-06, No Iterations 3
DICPCG:  Solving for p, Initial residual = 0.0212922, Final residual = 0.00105215, No Iterations 54
time step continuity errors : sum local = 3.13923e-09, global = 3.71275e-11, cumulative = 1.61598e-10
DICPCG:  Solving for p, Initial residual = 0.00292347, Final residual = 9.3469e-07, No Iterations 211
time step continuity errors : sum local = 2.75657e-12, global = -9.87507e-15, cumulative = 1.61588e-10
ExecutionTime = 1.4 s  ClockTime = 1 s

Time = 0.5

Courant Number mean: 0.00376289 max: 0.0794517
smoothSolver:  Solving for Ux, Initial residual = 0.00399191, Final residual = 2.38277e-06, No Iterations 3
smoothSolver:  Solving for Uy, Initial residual = 0.00605328, Final residual = 9.89938e-06, No Iterations 2
DICPCG:  Solving for p, Initial residual = 0.0199214, Final residual = 0.000966175, No Iterations 54
time step continuity errors : sum local = 2.792e-09, global = 3.54887e-11, cumulative = 1.97077e-10
DICPCG:  Solving for p, Initial residual = 0.00278988, Final residual = 9.23179e-07, No Iterations 212
time step continuity errors : sum local = 2.63818e-12, global = -1.51649e-14, cumulative = 1.97062e-10
ExecutionTime = 1.69 s  ClockTime = 2 s

Time = 0.55

Courant Number mean: 0.00376087 max: 0.0770265
smoothSolver:  Solving for Ux, Initial residual = 0.00358948, Final residual = 2.06111e-06, No Iterations 3
smoothSolver:  Solving for Uy, Initial residual = 0.00561314, Final residual = 9.07544e-06, No Iterations 2
DICPCG:  Solving for p, Initial residual = 0.0186999, Final residual = 0.000926125, No Iterations 53
time step continuity errors : sum local = 2.59689e-09, global = 3.24883e-11, cumulative = 2.2955e-10
DICPCG:  Solving for p, Initial residual = 0.00254748, Final residual = 9.79586e-07, No Iterations 210
time step continuity errors : sum local = 2.71851e-12, global = 3.24815e-15, cumulative = 2.29553e-10
ExecutionTime = 1.81 s  ClockTime = 2 s

Time = 0.6

Courant Number mean: 0.00375897 max: 0.0753666
smoothSolver:  Solving for Ux, Initial residual = 0.00326191, Final residual = 9.94994e-06, No Iterations 2
smoothSolver:  Solving for Uy, Initial residual = 0.0052265, Final residual = 8.34354e-06, No Iterations 2
DICPCG:  Solving for p, Initial residual = 0.0176095, Final residual = 0.000866287, No Iterations 54
time step continuity errors : sum local = 2.36027e-09, global = 3.29163e-11, cumulative = 2.6247e-10
DICPCG:  Solving for p, Initial residual = 0.00274763, Final residual = 9.14627e-07, No Iterations 211
time step continuity errors : sum local = 2.46585e-12, global = -1.0607e-14, cumulative = 2.62459e-10
ExecutionTime = 1.92 s  ClockTime = 2 s

Time = 0.65

Courant Number mean: 0.00375718 max: 0.0740134
smoothSolver:  Solving for Ux, Initial residual = 0.00298821, Final residual = 8.83613e-06, No Iterations 2
smoothSolver:  Solving for Uy, Initial residual = 0.00487397, Final residual = 7.7181e-06, No Iterations 2
DICPCG:  Solving for p, Initial residual = 0.016866, Final residual = 0.000802051, No Iterations 54
time step continuity errors : sum local = 2.12367e-09, global = 3.133e-11, cumulative = 2.93789e-10
DICPCG:  Solving for p, Initial residual = 0.00257357, Final residual = 9.12853e-07, No Iterations 211
time step continuity errors : sum local = 2.39223e-12, global = -1.21932e-14, cumulative = 2.93777e-10
ExecutionTime = 2.03 s  ClockTime = 2 s

Time = 0.7

Courant Number mean: 0.0037555 max: 0.0727149
smoothSolver:  Solving for Ux, Initial residual = 0.00275884, Final residual = 7.90332e-06, No Iterations 2
smoothSolver:  Solving for Uy, Initial residual = 0.0045682, Final residual = 7.17458e-06, No Iterations 2
DICPCG:  Solving for p, Initial residual = 0.0159079, Final residual = 0.000748263, No Iterations 54
time step continuity errors : sum local = 1.92805e-09, global = 3.00902e-11, cumulative = 3.23867e-10
DICPCG:  Solving for p, Initial residual = 0.00240821, Final residual = 9.64112e-07, No Iterations 210
time step continuity errors : sum local = 2.46003e-12, global = -6.79037e-15, cumulative = 3.2386e-10
ExecutionTime = 2.14 s  ClockTime = 2 s

Time = 0.75

Courant Number mean: 0.00375389 max: 0.0714719
smoothSolver:  Solving for Ux, Initial residual = 0.00256226, Final residual = 7.11592e-06, No Iterations 2
smoothSolver:  Solving for Uy, Initial residual = 0.00429026, Final residual = 6.68303e-06, No Iterations 2
DICPCG:  Solving for p, Initial residual = 0.0151349, Final residual = 0.00071022, No Iterations 54
time step continuity errors : sum local = 1.78332e-09, global = 2.89123e-11, cumulative = 3.52772e-10
DICPCG:  Solving for p, Initial residual = 0.00228371, Final residual = 9.15772e-07, No Iterations 210
time step continuity errors : sum local = 2.2782e-12, global = -7.20811e-15, cumulative = 3.52765e-10
ExecutionTime = 2.25 s  ClockTime = 2 s

Time = 0.8

Courant Number mean: 0.00375237 max: 0.0702829
smoothSolver:  Solving for Ux, Initial residual = 0.00239194, Final residual = 6.44378e-06, No Iterations 2
smoothSolver:  Solving for Uy, Initial residual = 0.00403674, Final residual = 6.24795e-06, No Iterations 2
DICPCG:  Solving for p, Initial residual = 0.014695, Final residual = 0.000725831, No Iterations 53
time step continuity errors : sum local = 1.77755e-09, global = 2.67685e-11, cumulative = 3.79534e-10
DICPCG:  Solving for p, Initial residual = 0.00219957, Final residual = 9.84606e-07, No Iterations 209
time step continuity errors : sum local = 2.38926e-12, global = -3.2755e-15, cumulative = 3.7953e-10
ExecutionTime = 2.37 s  ClockTime = 2 s

Time = 0.85

Courant Number mean: 0.00375092 max: 0.069146
smoothSolver:  Solving for Ux, Initial residual = 0.00224301, Final residual = 5.86406e-06, No Iterations 2
smoothSolver:  Solving for Uy, Initial residual = 0.00380562, Final residual = 5.85813e-06, No Iterations 2
DICPCG:  Solving for p, Initial residual = 0.0139327, Final residual = 0.000688193, No Iterations 53
time step continuity errors : sum local = 1.64486e-09, global = 2.57531e-11, cumulative = 4.05284e-10
DICPCG:  Solving for p, Initial residual = 0.00209776, Final residual = 9.53884e-07, No Iterations 209
time step continuity errors : sum local = 2.25975e-12, global = -4.53407e-15, cumulative = 4.05279e-10
ExecutionTime = 2.48 s  ClockTime = 3 s

Time = 0.9

Courant Number mean: 0.00374954 max: 0.0680583
smoothSolver:  Solving for Ux, Initial residual = 0.00211172, Final residual = 5.3589e-06, No Iterations 2
smoothSolver:  Solving for Uy, Initial residual = 0.00359365, Final residual = 5.50864e-06, No Iterations 2
DICPCG:  Solving for p, Initial residual = 0.0132736, Final residual = 0.000656156, No Iterations 53
time step continuity errors : sum local = 1.532e-09, global = 2.48517e-11, cumulative = 4.30131e-10
DICPCG:  Solving for p, Initial residual = 0.00198768, Final residual = 9.05522e-07, No Iterations 209
time step continuity errors : sum local = 2.0963e-12, global = -4.61905e-15, cumulative = 4.30126e-10
ExecutionTime = 2.59 s  ClockTime = 3 s

Time = 0.95

Courant Number mean: 0.00374822 max: 0.0670174
smoothSolver:  Solving for Ux, Initial residual = 0.00199521, Final residual = 4.91657e-06, No Iterations 2
smoothSolver:  Solving for Uy, Initial residual = 0.00339893, Final residual = 5.19499e-06, No Iterations 2
DICPCG:  Solving for p, Initial residual = 0.0126823, Final residual = 0.000625533, No Iterations 53
time step continuity errors : sum local = 1.42806e-09, global = 2.3958e-11, cumulative = 4.54084e-10
DICPCG:  Solving for p, Initial residual = 0.00190227, Final residual = 8.71332e-07, No Iterations 209
time step continuity errors : sum local = 1.97306e-12, global = -5.33948e-15, cumulative = 4.54079e-10
ExecutionTime = 2.69 s  ClockTime = 3 s

Time = 1

Courant Number mean: 0.00374696 max: 0.0660201
smoothSolver:  Solving for Ux, Initial residual = 0.00189113, Final residual = 4.52709e-06, No Iterations 2
smoothSolver:  Solving for Uy, Initial residual = 0.00321952, Final residual = 4.90857e-06, No Iterations 2
DICPCG:  Solving for p, Initial residual = 0.0121794, Final residual = 0.000597813, No Iterations 53
time step continuity errors : sum local = 1.33557e-09, global = 2.31354e-11, cumulative = 4.77214e-10
DICPCG:  Solving for p, Initial residual = 0.00182261, Final residual = 9.82805e-07, No Iterations 208
time step continuity errors : sum local = 2.17842e-12, global = -3.9212e-15, cumulative = 4.7721e-10
ExecutionTime = 3 s  ClockTime = 3 s

Time = 1.05

Courant Number mean: 0.00374575 max: 0.0651362
smoothSolver:  Solving for Ux, Initial residual = 0.00179768, Final residual = 4.1816e-06, No Iterations 2
smoothSolver:  Solving for Uy, Initial residual = 0.00305374, Final residual = 4.64806e-06, No Iterations 2
DICPCG:  Solving for p, Initial residual = 0.0117526, Final residual = 0.000577572, No Iterations 53
time step continuity errors : sum local = 1.26382e-09, global = 2.2327e-11, cumulative = 4.99537e-10
DICPCG:  Solving for p, Initial residual = 0.00174813, Final residual = 9.69969e-07, No Iterations 208
time step continuity errors : sum local = 2.1066e-12, global = -3.85648e-15, cumulative = 4.99533e-10
ExecutionTime = 3.11 s  ClockTime = 3 s

Time = 1.1

Courant Number mean: 0.00374459 max: 0.064952
smoothSolver:  Solving for Ux, Initial residual = 0.00171338, Final residual = 3.87356e-06, No Iterations 2
smoothSolver:  Solving for Uy, Initial residual = 0.00290053, Final residual = 4.40942e-06, No Iterations 2
DICPCG:  Solving for p, Initial residual = 0.011284, Final residual = 0.000549201, No Iterations 53
time step continuity errors : sum local = 1.17802e-09, global = 2.16333e-11, cumulative = 5.21167e-10
DICPCG:  Solving for p, Initial residual = 0.00167647, Final residual = 9.24466e-07, No Iterations 208
time step continuity errors : sum local = 1.96867e-12, global = -5.16396e-15, cumulative = 5.21162e-10
ExecutionTime = 3.22 s  ClockTime = 3 s

Time = 1.15

Courant Number mean: 0.00374347 max: 0.06475
smoothSolver:  Solving for Ux, Initial residual = 0.001637, Final residual = 3.59724e-06, No Iterations 2
smoothSolver:  Solving for Uy, Initial residual = 0.00275881, Final residual = 4.19018e-06, No Iterations 2
DICPCG:  Solving for p, Initial residual = 0.0108038, Final residual = 0.000529231, No Iterations 53
time step continuity errors : sum local = 1.1137e-09, global = 2.09059e-11, cumulative = 5.42067e-10
DICPCG:  Solving for p, Initial residual = 0.00160287, Final residual = 9.0448e-07, No Iterations 208
time step continuity errors : sum local = 1.89038e-12, global = -3.80665e-15, cumulative = 5.42064e-10
ExecutionTime = 3.33 s  ClockTime = 3 s

Time = 1.2

Courant Number mean: 0.0037424 max: 0.0645326
smoothSolver:  Solving for Ux, Initial residual = 0.0015675, Final residual = 3.34937e-06, No Iterations 2
smoothSolver:  Solving for Uy, Initial residual = 0.00262748, Final residual = 3.9913e-06, No Iterations 2
DICPCG:  Solving for p, Initial residual = 0.0104231, Final residual = 0.000505243, No Iterations 53
time step continuity errors : sum local = 1.04391e-09, global = 2.02284e-11, cumulative = 5.62292e-10
DICPCG:  Solving for p, Initial residual = 0.0015384, Final residual = 8.4525e-07, No Iterations 208
time step continuity errors : sum local = 1.73491e-12, global = -4.62332e-15, cumulative = 5.62287e-10
ExecutionTime = 3.44 s  ClockTime = 4 s

Time = 1.25

Courant Number mean: 0.00374137 max: 0.0643018
smoothSolver:  Solving for Ux, Initial residual = 0.00150399, Final residual = 3.12571e-06, No Iterations 2
smoothSolver:  Solving for Uy, Initial residual = 0.00250595, Final residual = 3.81111e-06, No Iterations 2
DICPCG:  Solving for p, Initial residual = 0.0101305, Final residual = 0.000487593, No Iterations 53
time step continuity errors : sum local = 9.89663e-10, global = 1.96277e-11, cumulative = 5.81915e-10
DICPCG:  Solving for p, Initial residual = 0.00150121, Final residual = 8.49712e-07, No Iterations 208
time step continuity errors : sum local = 1.71348e-12, global = -3.32846e-15, cumulative = 5.81912e-10
ExecutionTime = 3.55 s  ClockTime = 4 s

Time = 1.3

Courant Number mean: 0.00374038 max: 0.0640597
smoothSolver:  Solving for Ux, Initial residual = 0.00144576, Final residual = 2.9234e-06, No Iterations 2
smoothSolver:  Solving for Uy, Initial residual = 0.00239322, Final residual = 3.64549e-06, No Iterations 2
DICPCG:  Solving for p, Initial residual = 0.00967896, Final residual = 0.000466218, No Iterations 53
time step continuity errors : sum local = 9.3022e-10, global = 1.90306e-11, cumulative = 6.00942e-10
DICPCG:  Solving for p, Initial residual = 0.00142416, Final residual = 9.53744e-07, No Iterations 207
time step continuity errors : sum local = 1.89145e-12, global = -1.54997e-15, cumulative = 6.00941e-10
ExecutionTime = 3.66 s  ClockTime = 4 s

Time = 1.35

Courant Number mean: 0.00373942 max: 0.0638077
smoothSolver:  Solving for Ux, Initial residual = 0.0013922, Final residual = 2.73993e-06, No Iterations 2
smoothSolver:  Solving for Uy, Initial residual = 0.00228812, Final residual = 3.495e-06, No Iterations 2
DICPCG:  Solving for p, Initial residual = 0.00931273, Final residual = 0.000442881, No Iterations 53
time step continuity errors : sum local = 8.69309e-10, global = 1.84691e-11, cumulative = 6.1941e-10
DICPCG:  Solving for p, Initial residual = 0.00136661, Final residual = 9.51205e-07, No Iterations 207
time step continuity errors : sum local = 1.85609e-12, global = -1.23715e-15, cumulative = 6.19409e-10
ExecutionTime = 3.77 s  ClockTime = 4 s

Time = 1.4

Courant Number mean: 0.00373849 max: 0.0635475
smoothSolver:  Solving for Ux, Initial residual = 0.0013428, Final residual = 2.57292e-06, No Iterations 2
smoothSolver:  Solving for Uy, Initial residual = 0.00219038, Final residual = 3.35785e-06, No Iterations 2
DICPCG:  Solving for p, Initial residual = 0.00898766, Final residual = 0.000448685, No Iterations 52
time step continuity errors : sum local = 8.66806e-10, global = 1.77221e-11, cumulative = 6.37131e-10
DICPCG:  Solving for p, Initial residual = 0.00134164, Final residual = 8.73952e-07, No Iterations 207
time step continuity errors : sum local = 1.67873e-12, global = -2.13275e-15, cumulative = 6.37129e-10
ExecutionTime = 3.88 s  ClockTime = 4 s

Time = 1.45

Courant Number mean: 0.0037376 max: 0.0632803
smoothSolver:  Solving for Ux, Initial residual = 0.00129712, Final residual = 2.42053e-06, No Iterations 2
smoothSolver:  Solving for Uy, Initial residual = 0.00209922, Final residual = 3.23153e-06, No Iterations 2
DICPCG:  Solving for p, Initial residual = 0.00865414, Final residual = 0.000411139, No Iterations 53
time step continuity errors : sum local = 7.82184e-10, global = 1.74087e-11, cumulative = 6.54537e-10
DICPCG:  Solving for p, Initial residual = 0.00126949, Final residual = 8.54651e-07, No Iterations 207
time step continuity errors : sum local = 1.61712e-12, global = -1.06107e-15, cumulative = 6.54536e-10
ExecutionTime = 3.99 s  ClockTime = 4 s

Time = 1.5

Courant Number mean: 0.00373673 max: 0.0630073
smoothSolver:  Solving for Ux, Initial residual = 0.00125479, Final residual = 2.28099e-06, No Iterations 2
smoothSolver:  Solving for Uy, Initial residual = 0.0020146, Final residual = 3.11548e-06, No Iterations 2
DICPCG:  Solving for p, Initial residual = 0.00838689, Final residual = 0.000415102, No Iterations 52
time step continuity errors : sum local = 7.78288e-10, global = 1.67555e-11, cumulative = 6.71292e-10
DICPCG:  Solving for p, Initial residual = 0.00124728, Final residual = 9.69157e-07, No Iterations 206
time step continuity errors : sum local = 1.80784e-12, global = 3.74278e-15, cumulative = 6.71296e-10
ExecutionTime = 4.28 s  ClockTime = 4 s

Time = 1.55

Courant Number mean: 0.00373589 max: 0.0627295
smoothSolver:  Solving for Ux, Initial residual = 0.00121544, Final residual = 2.15324e-06, No Iterations 2
smoothSolver:  Solving for Uy, Initial residual = 0.00193538, Final residual = 3.0063e-06, No Iterations 2
DICPCG:  Solving for p, Initial residual = 0.00812491, Final residual = 0.000398918, No Iterations 52
time step continuity errors : sum local = 7.37451e-10, global = 1.63272e-11, cumulative = 6.87623e-10
DICPCG:  Solving for p, Initial residual = 0.00120586, Final residual = 9.49974e-07, No Iterations 206
time step continuity errors : sum local = 1.74726e-12, global = 3.53919e-15, cumulative = 6.87626e-10
ExecutionTime = 4.39 s  ClockTime = 5 s

Time = 1.6

Courant Number mean: 0.00373507 max: 0.0624479
smoothSolver:  Solving for Ux, Initial residual = 0.00117879, Final residual = 2.03578e-06, No Iterations 2
smoothSolver:  Solving for Uy, Initial residual = 0.00186153, Final residual = 2.90597e-06, No Iterations 2
DICPCG:  Solving for p, Initial residual = 0.00787885, Final residual = 0.000383275, No Iterations 52
time step continuity errors : sum local = 6.98821e-10, global = 1.59123e-11, cumulative = 7.03539e-10
DICPCG:  Solving for p, Initial residual = 0.00116403, Final residual = 9.13205e-07, No Iterations 206
time step continuity errors : sum local = 1.65687e-12, global = 3.78732e-15, cumulative = 7.03542e-10
ExecutionTime = 4.51 s  ClockTime = 5 s

Time = 1.65

Courant Number mean: 0.00373428 max: 0.0621632
smoothSolver:  Solving for Ux, Initial residual = 0.00114457, Final residual = 1.92783e-06, No Iterations 2
smoothSolver:  Solving for Uy, Initial residual = 0.00179234, Final residual = 2.81332e-06, No Iterations 2
DICPCG:  Solving for p, Initial residual = 0.00752844, Final residual = 0.000366857, No Iterations 52
time step continuity errors : sum local = 6.6007e-10, global = 1.54863e-11, cumulative = 7.19029e-10
DICPCG:  Solving for p, Initial residual = 0.00111049, Final residual = 8.85311e-07, No Iterations 206
time step continuity errors : sum local = 1.58553e-12, global = 4.43171e-15, cumulative = 7.19033e-10
ExecutionTime = 4.61 s  ClockTime = 5 s

Time = 1.7

Courant Number mean: 0.00373351 max: 0.0618762
smoothSolver:  Solving for Ux, Initial residual = 0.00111258, Final residual = 1.82843e-06, No Iterations 2
smoothSolver:  Solving for Uy, Initial residual = 0.00172767, Final residual = 2.72536e-06, No Iterations 2
DICPCG:  Solving for p, Initial residual = 0.00727912, Final residual = 0.000352938, No Iterations 52
time step continuity errors : sum local = 6.2704e-10, global = 1.51041e-11, cumulative = 7.34137e-10
DICPCG:  Solving for p, Initial residual = 0.00107057, Final residual = 9.69476e-07, No Iterations 205
time step continuity errors : sum local = 1.71482e-12, global = 1.10184e-14, cumulative = 7.34148e-10
ExecutionTime = 4.72 s  ClockTime = 5 s

Time = 1.75

Courant Number mean: 0.00373276 max: 0.0617279
smoothSolver:  Solving for Ux, Initial residual = 0.0010826, Final residual = 1.73665e-06, No Iterations 2
smoothSolver:  Solving for Uy, Initial residual = 0.00166724, Final residual = 2.64272e-06, No Iterations 2
DICPCG:  Solving for p, Initial residual = 0.0070815, Final residual = 0.000338423, No Iterations 52
time step continuity errors : sum local = 5.93933e-10, global = 1.47382e-11, cumulative = 7.48886e-10
DICPCG:  Solving for p, Initial residual = 0.0010357, Final residual = 9.47553e-07, No Iterations 205
time step continuity errors : sum local = 1.65576e-12, global = 1.0386e-14, cumulative = 7.48897e-10
ExecutionTime = 4.83 s  ClockTime = 5 s

Time = 1.8

Courant Number mean: 0.00373204 max: 0.0617117
smoothSolver:  Solving for Ux, Initial residual = 0.00105445, Final residual = 1.6516e-06, No Iterations 2
smoothSolver:  Solving for Uy, Initial residual = 0.00161064, Final residual = 2.56405e-06, No Iterations 2
DICPCG:  Solving for p, Initial residual = 0.00679702, Final residual = 0.000324809, No Iterations 52
time step continuity errors : sum local = 5.63315e-10, global = 1.4387e-11, cumulative = 7.63284e-10
DICPCG:  Solving for p, Initial residual = 0.000994143, Final residual = 9.06498e-07, No Iterations 205
time step continuity errors : sum local = 1.56567e-12, global = 1.05871e-14, cumulative = 7.63294e-10
ExecutionTime = 4.94 s  ClockTime = 5 s

Time = 1.85

Courant Number mean: 0.00373133 max: 0.0616874
smoothSolver:  Solving for Ux, Initial residual = 0.00102797, Final residual = 1.57271e-06, No Iterations 2
smoothSolver:  Solving for Uy, Initial residual = 0.00155761, Final residual = 2.48982e-06, No Iterations 2
DICPCG:  Solving for p, Initial residual = 0.00662893, Final residual = 0.000312519, No Iterations 52
time step continuity errors : sum local = 5.3587e-10, global = 1.40623e-11, cumulative = 7.77357e-10
DICPCG:  Solving for p, Initial residual = 0.000961773, Final residual = 9.73287e-07, No Iterations 204
time step continuity errors : sum local = 1.6623e-12, global = 1.64508e-14, cumulative = 7.77373e-10
ExecutionTime = 5.05 s  ClockTime = 5 s

Time = 1.9

Courant Number mean: 0.00373063 max: 0.0616554
smoothSolver:  Solving for Ux, Initial residual = 0.00100303, Final residual = 1.49936e-06, No Iterations 2
smoothSolver:  Solving for Uy, Initial residual = 0.00150794, Final residual = 2.42024e-06, No Iterations 2
DICPCG:  Solving for p, Initial residual = 0.0064172, Final residual = 0.000301321, No Iterations 52
time step continuity errors : sum local = 5.11032e-10, global = 1.37227e-11, cumulative = 7.91096e-10
DICPCG:  Solving for p, Initial residual = 0.000928332, Final residual = 9.56982e-07, No Iterations 204
time step continuity errors : sum local = 1.61687e-12, global = 1.63246e-14, cumulative = 7.91112e-10
ExecutionTime = 5.15 s  ClockTime = 5 s

Time = 1.95

Courant Number mean: 0.00372996 max: 0.0616162
smoothSolver:  Solving for Ux, Initial residual = 0.000979505, Final residual = 9.96771e-06, No Iterations 1
smoothSolver:  Solving for Uy, Initial residual = 0.00146137, Final residual = 2.35588e-06, No Iterations 2
DICPCG:  Solving for p, Initial residual = 0.0068727, Final residual = 0.000322726, No Iterations 59
time step continuity errors : sum local = 5.41645e-10, global = 1.41958e-11, cumulative = 8.05308e-10
DICPCG:  Solving for p, Initial residual = 0.0027807, Final residual = 9.39451e-07, No Iterations 211
time step continuity errors : sum local = 1.5708e-12, global = -1.03382e-14, cumulative = 8.05298e-10
ExecutionTime = 5.27 s  ClockTime = 5 s

Time = 2

Courant Number mean: 0.00372931 max: 0.0615689
smoothSolver:  Solving for Ux, Initial residual = 0.000956065, Final residual = 9.605e-06, No Iterations 1
smoothSolver:  Solving for Uy, Initial residual = 0.00140552, Final residual = 2.29411e-06, No Iterations 2
DICPCG:  Solving for p, Initial residual = 0.00665854, Final residual = 0.00032168, No Iterations 56
time step continuity errors : sum local = 5.34109e-10, global = 1.34243e-11, cumulative = 8.18722e-10
DICPCG:  Solving for p, Initial residual = 0.00264234, Final residual = 8.48003e-07, No Iterations 211
time step continuity errors : sum local = 1.40309e-12, global = -7.67629e-15, cumulative = 8.18714e-10
ExecutionTime = 5.56 s  ClockTime = 6 s

Time = 2.05

Courant Number mean: 0.00372867 max: 0.0615155
smoothSolver:  Solving for Ux, Initial residual = 0.000935346, Final residual = 9.22903e-06, No Iterations 1
smoothSolver:  Solving for Uy, Initial residual = 0.00136589, Final residual = 2.23865e-06, No Iterations 2
DICPCG:  Solving for p, Initial residual = 0.00646246, Final residual = 0.000312662, No Iterations 56
time step continuity errors : sum local = 5.14137e-10, global = 1.31798e-11, cumulative = 8.31894e-10
DICPCG:  Solving for p, Initial residual = 0.00257533, Final residual = 9.83154e-07, No Iterations 210
time step continuity errors : sum local = 1.6113e-12, global = -4.78316e-15, cumulative = 8.31889e-10
ExecutionTime = 5.67 s  ClockTime = 6 s

Time = 2.1

Courant Number mean: 0.00372805 max: 0.0614562
smoothSolver:  Solving for Ux, Initial residual = 0.000915626, Final residual = 8.87583e-06, No Iterations 1
smoothSolver:  Solving for Uy, Initial residual = 0.00132803, Final residual = 2.18438e-06, No Iterations 2
DICPCG:  Solving for p, Initial residual = 0.00632385, Final residual = 0.000303416, No Iterations 56
time step continuity errors : sum local = 4.9432e-10, global = 1.28792e-11, cumulative = 8.44769e-10
DICPCG:  Solving for p, Initial residual = 0.00250965, Final residual = 9.623e-07, No Iterations 210
time step continuity errors : sum local = 1.56283e-12, global = -3.99785e-15, cumulative = 8.44765e-10
ExecutionTime = 5.79 s  ClockTime = 6 s

Time = 2.15

Courant Number mean: 0.00372744 max: 0.0613914
smoothSolver:  Solving for Ux, Initial residual = 0.000896897, Final residual = 8.54423e-06, No Iterations 1
smoothSolver:  Solving for Uy, Initial residual = 0.0012923, Final residual = 2.13295e-06, No Iterations 2
DICPCG:  Solving for p, Initial residual = 0.00616614, Final residual = 0.000307226, No Iterations 55
time step continuity errors : sum local = 4.96048e-10, global = 1.26249e-11, cumulative = 8.57389e-10
DICPCG:  Solving for p, Initial residual = 0.00243859, Final residual = 9.99429e-07, No Iterations 209
time step continuity errors : sum local = 1.6087e-12, global = 2.22109e-15, cumulative = 8.57392e-10
ExecutionTime = 5.9 s  ClockTime = 6 s

Time = 2.2

Courant Number mean: 0.00372684 max: 0.0613216
smoothSolver:  Solving for Ux, Initial residual = 0.000879077, Final residual = 8.23276e-06, No Iterations 1
smoothSolver:  Solving for Uy, Initial residual = 0.00125876, Final residual = 2.08472e-06, No Iterations 2
DICPCG:  Solving for p, Initial residual = 0.00602911, Final residual = 0.000298021, No Iterations 55
time step continuity errors : sum local = 4.7701e-10, global = 1.23498e-11, cumulative = 8.69742e-10
DICPCG:  Solving for p, Initial residual = 0.00237672, Final residual = 9.84527e-07, No Iterations 209
time step continuity errors : sum local = 1.57119e-12, global = 2.80034e-15, cumulative = 8.69744e-10
ExecutionTime = 6 s  ClockTime = 6 s

Time = 2.25

Courant Number mean: 0.00372625 max: 0.0612469
smoothSolver:  Solving for Ux, Initial residual = 0.000862125, Final residual = 7.94024e-06, No Iterations 1
smoothSolver:  Solving for Uy, Initial residual = 0.00122711, Final residual = 2.03851e-06, No Iterations 2
DICPCG:  Solving for p, Initial residual = 0.00589097, Final residual = 0.000288923, No Iterations 55
time step continuity errors : sum local = 4.58559e-10, global = 1.20859e-11, cumulative = 8.8183e-10
DICPCG:  Solving for p, Initial residual = 0.00231914, Final residual = 9.90758e-07, No Iterations 209
time step continuity errors : sum local = 1.56796e-12, global = 3.85789e-15, cumulative = 8.81834e-10
ExecutionTime = 6.11 s  ClockTime = 6 s

Time = 2.3

Courant Number mean: 0.00372568 max: 0.0611678
smoothSolver:  Solving for Ux, Initial residual = 0.00084596, Final residual = 7.66408e-06, No Iterations 1
smoothSolver:  Solving for Uy, Initial residual = 0.00119752, Final residual = 1.99396e-06, No Iterations 2
DICPCG:  Solving for p, Initial residual = 0.00575877, Final residual = 0.000284865, No Iterations 55
time step continuity errors : sum local = 4.4841e-10, global = 1.18379e-11, cumulative = 8.93672e-10
DICPCG:  Solving for p, Initial residual = 0.00226653, Final residual = 9.50445e-07, No Iterations 209
time step continuity errors : sum local = 1.49189e-12, global = 3.04981e-15, cumulative = 8.93675e-10
ExecutionTime = 6.23 s  ClockTime = 6 s

Time = 2.35

Courant Number mean: 0.00372512 max: 0.0610845
smoothSolver:  Solving for Ux, Initial residual = 0.000830555, Final residual = 7.40541e-06, No Iterations 1
smoothSolver:  Solving for Uy, Initial residual = 0.00116855, Final residual = 1.95146e-06, No Iterations 2
DICPCG:  Solving for p, Initial residual = 0.00554449, Final residual = 0.000271871, No Iterations 55
time step continuity errors : sum local = 4.24515e-10, global = 1.15796e-11, cumulative = 9.05255e-10
DICPCG:  Solving for p, Initial residual = 0.00220334, Final residual = 9.63492e-07, No Iterations 209
time step continuity errors : sum local = 1.50036e-12, global = 3.94422e-15, cumulative = 9.05259e-10
ExecutionTime = 6.33 s  ClockTime = 7 s

Time = 2.4

Courant Number mean: 0.00372457 max: 0.0609972
smoothSolver:  Solving for Ux, Initial residual = 0.000815808, Final residual = 7.1611e-06, No Iterations 1
smoothSolver:  Solving for Uy, Initial residual = 0.00114164, Final residual = 1.91148e-06, No Iterations 2
DICPCG:  Solving for p, Initial residual = 0.00536846, Final residual = 0.000261449, No Iterations 55
time step continuity errors : sum local = 4.05074e-10, global = 1.13553e-11, cumulative = 9.16614e-10
DICPCG:  Solving for p, Initial residual = 0.00214727, Final residual = 9.97589e-07, No Iterations 208
time step continuity errors : sum local = 1.54158e-12, global = 1.04607e-14, cumulative = 9.16624e-10
ExecutionTime = 6.44 s  ClockTime = 7 s

Time = 2.45

Courant Number mean: 0.00372403 max: 0.0609062
smoothSolver:  Solving for Ux, Initial residual = 0.000801698, Final residual = 6.93071e-06, No Iterations 1
smoothSolver:  Solving for Uy, Initial residual = 0.00111638, Final residual = 1.87263e-06, No Iterations 2
DICPCG:  Solving for p, Initial residual = 0.00518916, Final residual = 0.000252831, No Iterations 55
time step continuity errors : sum local = 3.88811e-10, global = 1.11377e-11, cumulative = 9.27762e-10
DICPCG:  Solving for p, Initial residual = 0.00209387, Final residual = 9.72215e-07, No Iterations 208
time step continuity errors : sum local = 1.49145e-12, global = 9.81886e-15, cumulative = 9.27772e-10
ExecutionTime = 6.56 s  ClockTime = 7 s

Time = 2.5

Courant Number mean: 0.0037235 max: 0.0608119
smoothSolver:  Solving for Ux, Initial residual = 0.000788187, Final residual = 6.71321e-06, No Iterations 1
smoothSolver:  Solving for Uy, Initial residual = 0.00109236, Final residual = 1.83545e-06, No Iterations 2
DICPCG:  Solving for p, Initial residual = 0.00506842, Final residual = 0.000245448, No Iterations 55
time step continuity errors : sum local = 3.74767e-10, global = 1.09199e-11, cumulative = 9.38692e-10
DICPCG:  Solving for p, Initial residual = 0.00204519, Final residual = 9.63114e-07, No Iterations 208
time step continuity errors : sum local = 1.46708e-12, global = 9.13777e-15, cumulative = 9.38701e-10
ExecutionTime = 6.86 s  ClockTime = 7 s

Time = 2.55

Courant Number mean: 0.00372297 max: 0.0607143
smoothSolver:  Solving for Ux, Initial residual = 0.000775235, Final residual = 6.50745e-06, No Iterations 1
smoothSolver:  Solving for Uy, Initial residual = 0.00106958, Final residual = 1.80003e-06, No Iterations 2
DICPCG:  Solving for p, Initial residual = 0.00496116, Final residual = 0.000238254, No Iterations 55
time step continuity errors : sum local = 3.61269e-10, global = 1.07125e-11, cumulative = 9.49413e-10
DICPCG:  Solving for p, Initial residual = 0.0019989, Final residual = 9.23063e-07, No Iterations 208
time step continuity errors : sum local = 1.39648e-12, global = 9.3534e-15, cumulative = 9.49423e-10
ExecutionTime = 6.97 s  ClockTime = 7 s

Time = 2.6

Courant Number mean: 0.00372246 max: 0.0606138
smoothSolver:  Solving for Ux, Initial residual = 0.000762817, Final residual = 6.3128e-06, No Iterations 1
smoothSolver:  Solving for Uy, Initial residual = 0.00104801, Final residual = 1.76568e-06, No Iterations 2
DICPCG:  Solving for p, Initial residual = 0.00488824, Final residual = 0.000230539, No Iterations 55
time step continuity errors : sum local = 3.47243e-10, global = 1.05189e-11, cumulative = 9.59942e-10
DICPCG:  Solving for p, Initial residual = 0.00195729, Final residual = 9.19291e-07, No Iterations 208
time step continuity errors : sum local = 1.38166e-12, global = 8.56792e-15, cumulative = 9.5995e-10
ExecutionTime = 7.08 s  ClockTime = 7 s

Time = 2.65

Courant Number mean: 0.00372196 max: 0.0605106
smoothSolver:  Solving for Ux, Initial residual = 0.0007509, Final residual = 6.12881e-06, No Iterations 1
smoothSolver:  Solving for Uy, Initial residual = 0.00102747, Final residual = 1.73228e-06, No Iterations 2
DICPCG:  Solving for p, Initial residual = 0.00474977, Final residual = 0.000227088, No Iterations 55
time step continuity errors : sum local = 3.39815e-10, global = 1.03102e-11, cumulative = 9.7026e-10
DICPCG:  Solving for p, Initial residual = 0.00191456, Final residual = 9.34473e-07, No Iterations 208
time step continuity errors : sum local = 1.39532e-12, global = 9.79548e-15, cumulative = 9.7027e-10
ExecutionTime = 7.19 s  ClockTime = 7 s

Time = 2.7

Courant Number mean: 0.00372146 max: 0.0604047
smoothSolver:  Solving for Ux, Initial residual = 0.000739439, Final residual = 5.9543e-06, No Iterations 1
smoothSolver:  Solving for Uy, Initial residual = 0.00100799, Final residual = 1.70079e-06, No Iterations 2
DICPCG:  Solving for p, Initial residual = 0.00467692, Final residual = 0.000221372, No Iterations 55
time step continuity errors : sum local = 3.29136e-10, global = 1.01263e-11, cumulative = 9.80396e-10
DICPCG:  Solving for p, Initial residual = 0.00187631, Final residual = 9.90139e-07, No Iterations 207
time step continuity errors : sum local = 1.46903e-12, global = 1.4402e-14, cumulative = 9.80411e-10
ExecutionTime = 7.3 s  ClockTime = 7 s

Time = 2.75

Courant Number mean: 0.00372097 max: 0.0602966
smoothSolver:  Solving for Ux, Initial residual = 0.000728404, Final residual = 5.78854e-06, No Iterations 1
smoothSolver:  Solving for Uy, Initial residual = 0.000989427, Final residual = 1.67025e-06, No Iterations 2
DICPCG:  Solving for p, Initial residual = 0.0045514, Final residual = 0.000215139, No Iterations 55
time step continuity errors : sum local = 3.17866e-10, global = 9.94433e-12, cumulative = 9.90355e-10
DICPCG:  Solving for p, Initial residual = 0.00183343, Final residual = 9.45383e-07, No Iterations 207
time step continuity errors : sum local = 1.39393e-12, global = 1.32453e-14, cumulative = 9.90368e-10
ExecutionTime = 7.42 s  ClockTime = 8 s

Time = 2.8

Courant Number mean: 0.00372049 max: 0.0601862
smoothSolver:  Solving for Ux, Initial residual = 0.000717784, Final residual = 5.6312e-06, No Iterations 1
smoothSolver:  Solving for Uy, Initial residual = 0.000971699, Final residual = 1.64038e-06, No Iterations 2
DICPCG:  Solving for p, Initial residual = 0.00442884, Final residual = 0.00020841, No Iterations 55
time step continuity errors : sum local = 3.06056e-10, global = 9.76865e-12, cumulative = 1.00014e-09
DICPCG:  Solving for p, Initial residual = 0.00179406, Final residual = 9.30542e-07, No Iterations 207
time step continuity errors : sum local = 1.36386e-12, global = 1.21926e-14, cumulative = 1.00015e-09
ExecutionTime = 7.53 s  ClockTime = 8 s

Time = 2.85

Courant Number mean: 0.00372001 max: 0.0600738
smoothSolver:  Solving for Ux, Initial residual = 0.000707546, Final residual = 5.48156e-06, No Iterations 1
smoothSolver:  Solving for Uy, Initial residual = 0.000954693, Final residual = 1.61099e-06, No Iterations 2
DICPCG:  Solving for p, Initial residual = 0.00433268, Final residual = 0.000202976, No Iterations 55
time step continuity errors : sum local = 2.96342e-10, global = 9.59759e-12, cumulative = 1.00975e-09
DICPCG:  Solving for p, Initial residual = 0.00175749, Final residual = 9.03035e-07, No Iterations 207
time step continuity errors : sum local = 1.31598e-12, global = 1.22438e-14, cumulative = 1.00976e-09
ExecutionTime = 7.64 s  ClockTime = 8 s

Time = 2.9

Courant Number mean: 0.00371954 max: 0.0599595
smoothSolver:  Solving for Ux, Initial residual = 0.000697671, Final residual = 5.33916e-06, No Iterations 1
smoothSolver:  Solving for Uy, Initial residual = 0.000938448, Final residual = 1.58246e-06, No Iterations 2
DICPCG:  Solving for p, Initial residual = 0.00427456, Final residual = 0.000197652, No Iterations 55
time step continuity errors : sum local = 2.86939e-10, global = 9.42466e-12, cumulative = 1.01918e-09
DICPCG:  Solving for p, Initial residual = 0.00172351, Final residual = 9.96736e-07, No Iterations 206
time step continuity errors : sum local = 1.44437e-12, global = 1.52664e-14, cumulative = 1.0192e-09
ExecutionTime = 7.75 s  ClockTime = 8 s

Time = 2.95

Courant Number mean: 0.00371908 max: 0.0598435
smoothSolver:  Solving for Ux, Initial residual = 0.000688134, Final residual = 5.20345e-06, No Iterations 1
smoothSolver:  Solving for Uy, Initial residual = 0.000923002, Final residual = 1.555e-06, No Iterations 2
DICPCG:  Solving for p, Initial residual = 0.00417825, Final residual = 0.000193264, No Iterations 55
time step continuity errors : sum local = 2.79015e-10, global = 9.26888e-12, cumulative = 1.02847e-09
DICPCG:  Solving for p, Initial residual = 0.00168997, Final residual = 9.76399e-07, No Iterations 206
time step continuity errors : sum local = 1.40713e-12, global = 1.46599e-14, cumulative = 1.02848e-09
ExecutionTime = 7.86 s  ClockTime = 8 s

Time = 3

Courant Number mean: 0.00371862 max: 0.0597259
smoothSolver:  Solving for Ux, Initial residual = 0.000678918, Final residual = 5.07432e-06, No Iterations 1
smoothSolver:  Solving for Uy, Initial residual = 0.000908277, Final residual = 1.52799e-06, No Iterations 2
DICPCG:  Solving for p, Initial residual = 0.00409632, Final residual = 0.000188744, No Iterations 55
time step continuity errors : sum local = 2.7102e-10, global = 9.11225e-12, cumulative = 1.03759e-09
DICPCG:  Solving for p, Initial residual = 0.00165802, Final residual = 9.68332e-07, No Iterations 206
time step continuity errors : sum local = 1.38807e-12, global = 1.38057e-14, cumulative = 1.03761e-09
ExecutionTime = 8.15 s  ClockTime = 8 s

Time = 3.05

Courant Number mean: 0.00371818 max: 0.0596068
smoothSolver:  Solving for Ux, Initial residual = 0.000670011, Final residual = 4.95129e-06, No Iterations 1
smoothSolver:  Solving for Uy, Initial residual = 0.00089414, Final residual = 1.50165e-06, No Iterations 2
DICPCG:  Solving for p, Initial residual = 0.0040261, Final residual = 0.000185013, No Iterations 55
time step continuity errors : sum local = 2.64271e-10, global = 8.96125e-12, cumulative = 1.04657e-09
DICPCG:  Solving for p, Initial residual = 0.00162659, Final residual = 9.98807e-07, No Iterations 205
time step continuity errors : sum local = 1.42434e-12, global = 1.65994e-14, cumulative = 1.04659e-09
ExecutionTime = 8.26 s  ClockTime = 8 s

Time = 3.1

Courant Number mean: 0.00371773 max: 0.0594864
smoothSolver:  Solving for Ux, Initial residual = 0.000661393, Final residual = 4.83405e-06, No Iterations 1
smoothSolver:  Solving for Uy, Initial residual = 0.000880682, Final residual = 1.47611e-06, No Iterations 2
DICPCG:  Solving for p, Initial residual = 0.00394519, Final residual = 0.000179789, No Iterations 55
time step continuity errors : sum local = 2.55497e-10, global = 8.81214e-12, cumulative = 1.0554e-09
DICPCG:  Solving for p, Initial residual = 0.00159741, Final residual = 9.68115e-07, No Iterations 205
time step continuity errors : sum local = 1.37357e-12, global = 1.58988e-14, cumulative = 1.05541e-09
ExecutionTime = 8.37 s  ClockTime = 9 s

Time = 3.15

Courant Number mean: 0.00371729 max: 0.0593648
smoothSolver:  Solving for Ux, Initial residual = 0.000653042, Final residual = 4.72204e-06, No Iterations 1
smoothSolver:  Solving for Uy, Initial residual = 0.000867712, Final residual = 1.45086e-06, No Iterations 2
DICPCG:  Solving for p, Initial residual = 0.00386561, Final residual = 0.000176131, No Iterations 55
time step continuity errors : sum local = 2.49049e-10, global = 8.66837e-12, cumulative = 1.06408e-09
DICPCG:  Solving for p, Initial residual = 0.00156644, Final residual = 9.93093e-07, No Iterations 204
time step continuity errors : sum local = 1.40202e-12, global = 1.87984e-14, cumulative = 1.0641e-09
ExecutionTime = 8.48 s  ClockTime = 9 s

Time = 3.2

Courant Number mean: 0.00371686 max: 0.0592422
smoothSolver:  Solving for Ux, Initial residual = 0.000644946, Final residual = 4.61495e-06, No Iterations 1
smoothSolver:  Solving for Uy, Initial residual = 0.000855316, Final residual = 1.42675e-06, No Iterations 2
DICPCG:  Solving for p, Initial residual = 0.00379613, Final residual = 0.000172432, No Iterations 55
time step continuity errors : sum local = 2.42626e-10, global = 8.53229e-12, cumulative = 1.07263e-09
DICPCG:  Solving for p, Initial residual = 0.0015408, Final residual = 9.58796e-07, No Iterations 204
time step continuity errors : sum local = 1.34705e-12, global = 1.79843e-14, cumulative = 1.07265e-09
ExecutionTime = 8.59 s  ClockTime = 9 s

Time = 3.25

Courant Number mean: 0.00371643 max: 0.0591185
smoothSolver:  Solving for Ux, Initial residual = 0.000637096, Final residual = 4.51253e-06, No Iterations 1
smoothSolver:  Solving for Uy, Initial residual = 0.000843422, Final residual = 1.40312e-06, No Iterations 2
DICPCG:  Solving for p, Initial residual = 0.00371693, Final residual = 0.000169232, No Iterations 55
time step continuity errors : sum local = 2.36985e-10, global = 8.39574e-12, cumulative = 1.08105e-09
DICPCG:  Solving for p, Initial residual = 0.0015136, Final residual = 9.48656e-07, No Iterations 204
time step continuity errors : sum local = 1.32646e-12, global = 1.72715e-14, cumulative = 1.08106e-09
ExecutionTime = 8.69 s  ClockTime = 9 s

Time = 3.3

Courant Number mean: 0.00371601 max: 0.0589939
smoothSolver:  Solving for Ux, Initial residual = 0.000629484, Final residual = 4.41436e-06, No Iterations 1
smoothSolver:  Solving for Uy, Initial residual = 0.000831976, Final residual = 1.38004e-06, No Iterations 2
DICPCG:  Solving for p, Initial residual = 0.00366751, Final residual = 0.000166152, No Iterations 55
time step continuity errors : sum local = 2.31573e-10, global = 8.26011e-12, cumulative = 1.08933e-09
DICPCG:  Solving for p, Initial residual = 0.00149005, Final residual = 9.34373e-07, No Iterations 204
time step continuity errors : sum local = 1.30034e-12, global = 1.68976e-14, cumulative = 1.08934e-09
ExecutionTime = 8.81 s  ClockTime = 9 s

Time = 3.35

Courant Number mean: 0.00371559 max: 0.0588685
smoothSolver:  Solving for Ux, Initial residual = 0.000622093, Final residual = 4.3202e-06, No Iterations 1
smoothSolver:  Solving for Uy, Initial residual = 0.00082106, Final residual = 1.35738e-06, No Iterations 2
DICPCG:  Solving for p, Initial residual = 0.00359604, Final residual = 0.000162551, No Iterations 55
time step continuity errors : sum local = 2.25506e-10, global = 8.13559e-12, cumulative = 1.09748e-09
DICPCG:  Solving for p, Initial residual = 0.00146592, Final residual = 9.21882e-07, No Iterations 204
time step continuity errors : sum local = 1.27708e-12, global = 1.63608e-14, cumulative = 1.09749e-09
ExecutionTime = 8.91 s  ClockTime = 9 s

Time = 3.4

Courant Number mean: 0.00371518 max: 0.0587424
smoothSolver:  Solving for Ux, Initial residual = 0.000614913, Final residual = 4.22995e-06, No Iterations 1
smoothSolver:  Solving for Uy, Initial residual = 0.000810517, Final residual = 1.33538e-06, No Iterations 2
DICPCG:  Solving for p, Initial residual = 0.00352821, Final residual = 0.000159293, No Iterations 55
time step continuity errors : sum local = 2.1999e-10, global = 8.0142e-12, cumulative = 1.10551e-09
DICPCG:  Solving for p, Initial residual = 0.00144252, Final residual = 9.02765e-07, No Iterations 204
time step continuity errors : sum local = 1.24502e-12, global = 1.58395e-14, cumulative = 1.10552e-09
ExecutionTime = 9.02 s  ClockTime = 9 s

Time = 3.45

Courant Number mean: 0.00371477 max: 0.0586157
smoothSolver:  Solving for Ux, Initial residual = 0.000607938, Final residual = 4.14333e-06, No Iterations 1
smoothSolver:  Solving for Uy, Initial residual = 0.0008003, Final residual = 1.31389e-06, No Iterations 2
DICPCG:  Solving for p, Initial residual = 0.00348509, Final residual = 0.000156455, No Iterations 55
time step continuity errors : sum local = 2.15114e-10, global = 7.89469e-12, cumulative = 1.11342e-09
DICPCG:  Solving for p, Initial residual = 0.001422, Final residual = 8.84845e-07, No Iterations 204
time step continuity errors : sum local = 1.21492e-12, global = 1.53657e-14, cumulative = 1.11343e-09
ExecutionTime = 9.13 s  ClockTime = 9 s

Time = 3.5

Courant Number mean: 0.00371437 max: 0.0584884
smoothSolver:  Solving for Ux, Initial residual = 0.00060116, Final residual = 4.06014e-06, No Iterations 1
smoothSolver:  Solving for Uy, Initial residual = 0.000790456, Final residual = 1.29294e-06, No Iterations 2
DICPCG:  Solving for p, Initial residual = 0.00342713, Final residual = 0.000153583, No Iterations 55
time step continuity errors : sum local = 2.10245e-10, global = 7.77705e-12, cumulative = 1.12121e-09
DICPCG:  Solving for p, Initial residual = 0.00139948, Final residual = 8.6508e-07, No Iterations 204
time step continuity errors : sum local = 1.18265e-12, global = 1.48839e-14, cumulative = 1.12123e-09
ExecutionTime = 9.42 s  ClockTime = 10 s

Time = 3.55

Courant Number mean: 0.00371397 max: 0.0583606
smoothSolver:  Solving for Ux, Initial residual = 0.00059457, Final residual = 3.98016e-06, No Iterations 1
smoothSolver:  Solving for Uy, Initial residual = 0.00078093, Final residual = 9.97997e-06, No Iterations 1
DICPCG:  Solving for p, Initial residual = 0.00333257, Final residual = 0.000162078, No Iterations 56
time step continuity errors : sum local = 2.20933e-10, global = 7.63199e-12, cumulative = 1.12886e-09
DICPCG:  Solving for p, Initial residual = 0.00141288, Final residual = 9.40655e-07, No Iterations 206
time step continuity errors : sum local = 1.28052e-12, global = 2.10097e-14, cumulative = 1.12888e-09
ExecutionTime = 9.53 s  ClockTime = 10 s

Time = 3.6

Courant Number mean: 0.00371357 max: 0.0582327
smoothSolver:  Solving for Ux, Initial residual = 0.000588104, Final residual = 3.90337e-06, No Iterations 1
smoothSolver:  Solving for Uy, Initial residual = 0.000771551, Final residual = 9.88679e-06, No Iterations 1
DICPCG:  Solving for p, Initial residual = 0.00329041, Final residual = 0.000159663, No Iterations 54
time step continuity errors : sum local = 2.16722e-10, global = 7.61151e-12, cumulative = 1.13649e-09
DICPCG:  Solving for p, Initial residual = 0.00139094, Final residual = 9.3052e-07, No Iterations 206
time step continuity errors : sum local = 1.26141e-12, global = 1.86254e-14, cumulative = 1.13651e-09
ExecutionTime = 9.64 s  ClockTime = 10 s

Time = 3.65

Courant Number mean: 0.00371318 max: 0.0581045
smoothSolver:  Solving for Ux, Initial residual = 0.000581873, Final residual = 3.82933e-06, No Iterations 1
smoothSolver:  Solving for Uy, Initial residual = 0.000762797, Final residual = 9.76142e-06, No Iterations 1
DICPCG:  Solving for p, Initial residual = 0.00323435, Final residual = 0.000156842, No Iterations 54
time step continuity errors : sum local = 2.12017e-10, global = 7.49486e-12, cumulative = 1.144e-09
DICPCG:  Solving for p, Initial residual = 0.00137212, Final residual = 9.97212e-07, No Iterations 205
time step continuity errors : sum local = 1.34631e-12, global = 2.38838e-14, cumulative = 1.14403e-09
ExecutionTime = 9.75 s  ClockTime = 10 s

Time = 3.7

Courant Number mean: 0.0037128 max: 0.0579759
smoothSolver:  Solving for Ux, Initial residual = 0.000575798, Final residual = 3.75796e-06, No Iterations 1
smoothSolver:  Solving for Uy, Initial residual = 0.000754243, Final residual = 9.63842e-06, No Iterations 1
DICPCG:  Solving for p, Initial residual = 0.00318337, Final residual = 0.000154267, No Iterations 54
time step continuity errors : sum local = 2.07695e-10, global = 7.39206e-12, cumulative = 1.15142e-09
DICPCG:  Solving for p, Initial residual = 0.00135344, Final residual = 9.88104e-07, No Iterations 205
time step continuity errors : sum local = 1.32867e-12, global = 2.33584e-14, cumulative = 1.15144e-09
ExecutionTime = 9.85 s  ClockTime = 10 s

Time = 3.75

Courant Number mean: 0.00371241 max: 0.0578471
smoothSolver:  Solving for Ux, Initial residual = 0.000569879, Final residual = 3.68922e-06, No Iterations 1
smoothSolver:  Solving for Uy, Initial residual = 0.000745944, Final residual = 9.51891e-06, No Iterations 1
DICPCG:  Solving for p, Initial residual = 0.00314676, Final residual = 0.000151474, No Iterations 54
time step continuity errors : sum local = 2.03126e-10, global = 7.28979e-12, cumulative = 1.15873e-09
DICPCG:  Solving for p, Initial residual = 0.00133542, Final residual = 9.81188e-07, No Iterations 205
time step continuity errors : sum local = 1.31416e-12, global = 2.29683e-14, cumulative = 1.15876e-09
ExecutionTime = 9.96 s  ClockTime = 10 s

Time = 3.8

Courant Number mean: 0.00371203 max: 0.0577181
smoothSolver:  Solving for Ux, Initial residual = 0.000564103, Final residual = 3.62296e-06, No Iterations 1
smoothSolver:  Solving for Uy, Initial residual = 0.000737898, Final residual = 9.4017e-06, No Iterations 1
DICPCG:  Solving for p, Initial residual = 0.00311319, Final residual = 0.000154739, No Iterations 53
time step continuity errors : sum local = 2.06695e-10, global = 7.14881e-12, cumulative = 1.1659e-09
DICPCG:  Solving for p, Initial residual = 0.00132335, Final residual = 9.48476e-07, No Iterations 205
time step continuity errors : sum local = 1.26543e-12, global = 2.19622e-14, cumulative = 1.16593e-09
ExecutionTime = 10.06 s  ClockTime = 10 s

Time = 3.85

Courant Number mean: 0.00371166 max: 0.057589
smoothSolver:  Solving for Ux, Initial residual = 0.000558463, Final residual = 3.55911e-06, No Iterations 1
smoothSolver:  Solving for Uy, Initial residual = 0.000730073, Final residual = 9.28713e-06, No Iterations 1
DICPCG:  Solving for p, Initial residual = 0.00307902, Final residual = 0.000152146, No Iterations 53
time step continuity errors : sum local = 2.02452e-10, global = 7.05178e-12, cumulative = 1.17298e-09
DICPCG:  Solving for p, Initial residual = 0.00130701, Final residual = 9.42245e-07, No Iterations 205
time step continuity errors : sum local = 1.25232e-12, global = 2.16076e-14, cumulative = 1.173e-09
ExecutionTime = 10.17 s  ClockTime = 10 s

Time = 3.9

Courant Number mean: 0.00371128 max: 0.0574598
smoothSolver:  Solving for Ux, Initial residual = 0.000552959, Final residual = 3.49751e-06, No Iterations 1
smoothSolver:  Solving for Uy, Initial residual = 0.000722503, Final residual = 9.17405e-06, No Iterations 1
DICPCG:  Solving for p, Initial residual = 0.00301583, Final residual = 0.000149038, No Iterations 53
time step continuity errors : sum local = 1.97568e-10, global = 6.96556e-12, cumulative = 1.17997e-09
DICPCG:  Solving for p, Initial residual = 0.00129166, Final residual = 9.39285e-07, No Iterations 205
time step continuity errors : sum local = 1.2437e-12, global = 2.12508e-14, cumulative = 1.17999e-09
ExecutionTime = 10.29 s  ClockTime = 11 s

Time = 3.95

Courant Number mean: 0.00371092 max: 0.0573305
smoothSolver:  Solving for Ux, Initial residual = 0.00054758, Final residual = 3.43806e-06, No Iterations 1
smoothSolver:  Solving for Uy, Initial residual = 0.000715168, Final residual = 9.0639e-06, No Iterations 1
DICPCG:  Solving for p, Initial residual = 0.00299586, Final residual = 0.000147823, No Iterations 53
time step continuity errors : sum local = 1.95227e-10, global = 6.87671e-12, cumulative = 1.18686e-09
DICPCG:  Solving for p, Initial residual = 0.00127692, Final residual = 9.31007e-07, No Iterations 205
time step continuity errors : sum local = 1.22816e-12, global = 2.08675e-14, cumulative = 1.18688e-09
ExecutionTime = 10.39 s  ClockTime = 11 s

Time = 4

Courant Number mean: 0.00371055 max: 0.0572013
smoothSolver:  Solving for Ux, Initial residual = 0.000542325, Final residual = 3.38053e-06, No Iterations 1
smoothSolver:  Solving for Uy, Initial residual = 0.00070806, Final residual = 8.95491e-06, No Iterations 1
DICPCG:  Solving for p, Initial residual = 0.00294284, Final residual = 0.00014439, No Iterations 53
time step continuity errors : sum local = 1.89995e-10, global = 6.785e-12, cumulative = 1.19367e-09
DICPCG:  Solving for p, Initial residual = 0.00125974, Final residual = 9.27915e-07, No Iterations 205
time step continuity errors : sum local = 1.21962e-12, global = 2.06967e-14, cumulative = 1.19369e-09
ExecutionTime = 10.68 s  ClockTime = 11 s

Time = 4.05

Courant Number mean: 0.00371019 max: 0.0570721
smoothSolver:  Solving for Ux, Initial residual = 0.00053719, Final residual = 3.32495e-06, No Iterations 1
smoothSolver:  Solving for Uy, Initial residual = 0.000701138, Final residual = 8.8477e-06, No Iterations 1
DICPCG:  Solving for p, Initial residual = 0.00291738, Final residual = 0.000141685, No Iterations 53
time step continuity errors : sum local = 1.85761e-10, global = 6.70339e-12, cumulative = 1.20039e-09
DICPCG:  Solving for p, Initial residual = 0.00124484, Final residual = 9.29331e-07, No Iterations 205
time step continuity errors : sum local = 1.21709e-12, global = 2.04616e-14, cumulative = 1.20041e-09
ExecutionTime = 10.78 s  ClockTime = 11 s

Time = 4.1

Courant Number mean: 0.00370983 max: 0.056943
smoothSolver:  Solving for Ux, Initial residual = 0.000532168, Final residual = 3.27122e-06, No Iterations 1
smoothSolver:  Solving for Uy, Initial residual = 0.000694406, Final residual = 8.74321e-06, No Iterations 1
DICPCG:  Solving for p, Initial residual = 0.00287756, Final residual = 0.000139504, No Iterations 53
time step continuity errors : sum local = 1.82254e-10, global = 6.62066e-12, cumulative = 1.20703e-09
DICPCG:  Solving for p, Initial residual = 0.00123085, Final residual = 9.16542e-07, No Iterations 205
time step continuity errors : sum local = 1.19614e-12, global = 1.99186e-14, cumulative = 1.20705e-09
ExecutionTime = 10.9 s  ClockTime = 11 s

Time = 4.15

Courant Number mean: 0.00370947 max: 0.0568141
smoothSolver:  Solving for Ux, Initial residual = 0.000527256, Final residual = 3.21926e-06, No Iterations 1
smoothSolver:  Solving for Uy, Initial residual = 0.000687834, Final residual = 8.64068e-06, No Iterations 1
DICPCG:  Solving for p, Initial residual = 0.00283961, Final residual = 0.000137522, No Iterations 53
time step continuity errors : sum local = 1.79045e-10, global = 6.54151e-12, cumulative = 1.2136e-09
DICPCG:  Solving for p, Initial residual = 0.00121729, Final residual = 9.12142e-07, No Iterations 205
time step continuity errors : sum local = 1.18633e-12, global = 1.96566e-14, cumulative = 1.21362e-09
ExecutionTime = 11 s  ClockTime = 11 s

Time = 4.2

Courant Number mean: 0.00370912 max: 0.0566852
smoothSolver:  Solving for Ux, Initial residual = 0.00052245, Final residual = 3.16892e-06, No Iterations 1
smoothSolver:  Solving for Uy, Initial residual = 0.000681437, Final residual = 8.54054e-06, No Iterations 1
DICPCG:  Solving for p, Initial residual = 0.00280435, Final residual = 0.00013478, No Iterations 53
time step continuity errors : sum local = 1.74879e-10, global = 6.4606e-12, cumulative = 1.22008e-09
DICPCG:  Solving for p, Initial residual = 0.00120051, Final residual = 8.96486e-07, No Iterations 205
time step continuity errors : sum local = 1.16202e-12, global = 1.91387e-14, cumulative = 1.2201e-09
ExecutionTime = 11.11 s  ClockTime = 11 s

Time = 4.25

Courant Number mean: 0.00370877 max: 0.0565566
smoothSolver:  Solving for Ux, Initial residual = 0.000517747, Final residual = 3.12008e-06, No Iterations 1
smoothSolver:  Solving for Uy, Initial residual = 0.000675218, Final residual = 8.44313e-06, No Iterations 1
DICPCG:  Solving for p, Initial residual = 0.00277063, Final residual = 0.000132695, No Iterations 53
time step continuity errors : sum local = 1.71601e-10, global = 6.38419e-12, cumulative = 1.22648e-09
DICPCG:  Solving for p, Initial residual = 0.00118803, Final residual = 8.89934e-07, No Iterations 205
time step continuity errors : sum local = 1.14973e-12, global = 1.87224e-14, cumulative = 1.2265e-09
ExecutionTime = 11.21 s  ClockTime = 11 s

Time = 4.3

Courant Number mean: 0.00370842 max: 0.0564282
smoothSolver:  Solving for Ux, Initial residual = 0.000513143, Final residual = 3.07276e-06, No Iterations 1
smoothSolver:  Solving for Uy, Initial residual = 0.000669152, Final residual = 8.34713e-06, No Iterations 1
DICPCG:  Solving for p, Initial residual = 0.0027345, Final residual = 0.00013103, No Iterations 53
time step continuity errors : sum local = 1.68896e-10, global = 6.31263e-12, cumulative = 1.23281e-09
DICPCG:  Solving for p, Initial residual = 0.00117501, Final residual = 8.86782e-07, No Iterations 205
time step continuity errors : sum local = 1.14196e-12, global = 1.86076e-14, cumulative = 1.23283e-09
ExecutionTime = 11.33 s  ClockTime = 12 s

Time = 4.35

Courant Number mean: 0.00370807 max: 0.0563528
smoothSolver:  Solving for Ux, Initial residual = 0.000508636, Final residual = 3.02681e-06, No Iterations 1
smoothSolver:  Solving for Uy, Initial residual = 0.000663259, Final residual = 8.25255e-06, No Iterations 1
DICPCG:  Solving for p, Initial residual = 0.00271067, Final residual = 0.000129405, No Iterations 53
time step continuity errors : sum local = 1.66267e-10, global = 6.23068e-12, cumulative = 1.23906e-09
DICPCG:  Solving for p, Initial residual = 0.00116218, Final residual = 8.77503e-07, No Iterations 205
time step continuity errors : sum local = 1.12639e-12, global = 1.82042e-14, cumulative = 1.23908e-09
ExecutionTime = 11.43 s  ClockTime = 12 s

Time = 4.4

Courant Number mean: 0.00370773 max: 0.0562811
smoothSolver:  Solving for Ux, Initial residual = 0.000504219, Final residual = 2.98217e-06, No Iterations 1
smoothSolver:  Solving for Uy, Initial residual = 0.000657544, Final residual = 8.16045e-06, No Iterations 1
DICPCG:  Solving for p, Initial residual = 0.00267057, Final residual = 0.000127389, No Iterations 53
time step continuity errors : sum local = 1.63158e-10, global = 6.14068e-12, cumulative = 1.24522e-09
DICPCG:  Solving for p, Initial residual = 0.00115126, Final residual = 8.72122e-07, No Iterations 205
time step continuity errors : sum local = 1.11596e-12, global = 1.7952e-14, cumulative = 1.24524e-09
ExecutionTime = 11.54 s  ClockTime = 12 s

Time = 4.45

Courant Number mean: 0.00370739 max: 0.0562091
smoothSolver:  Solving for Ux, Initial residual = 0.000499889, Final residual = 2.93892e-06, No Iterations 1
smoothSolver:  Solving for Uy, Initial residual = 0.000651949, Final residual = 8.06954e-06, No Iterations 1
DICPCG:  Solving for p, Initial residual = 0.00263664, Final residual = 0.00012545, No Iterations 53
time step continuity errors : sum local = 1.60174e-10, global = 6.08308e-12, cumulative = 1.25132e-09
DICPCG:  Solving for p, Initial residual = 0.00113903, Final residual = 9.8875e-07, No Iterations 204
time step continuity errors : sum local = 1.26128e-12, global = 2.3081e-14, cumulative = 1.25134e-09
ExecutionTime = 11.64 s  ClockTime = 12 s

Time = 4.5

Courant Number mean: 0.00370706 max: 0.0561368
smoothSolver:  Solving for Ux, Initial residual = 0.000495648, Final residual = 2.8969e-06, No Iterations 1
smoothSolver:  Solving for Uy, Initial residual = 0.000646521, Final residual = 7.98023e-06, No Iterations 1
DICPCG:  Solving for p, Initial residual = 0.00260417, Final residual = 0.000123719, No Iterations 53
time step continuity errors : sum local = 1.5748e-10, global = 6.01767e-12, cumulative = 1.25736e-09
DICPCG:  Solving for p, Initial residual = 0.001127, Final residual = 9.83919e-07, No Iterations 204
time step continuity errors : sum local = 1.25129e-12, global = 2.2908e-14, cumulative = 1.25738e-09
ExecutionTime = 11.94 s  ClockTime = 12 s

Time = 4.55

Courant Number mean: 0.00370672 max: 0.0560642
smoothSolver:  Solving for Ux, Initial residual = 0.000491492, Final residual = 2.85601e-06, No Iterations 1
smoothSolver:  Solving for Uy, Initial residual = 0.000641233, Final residual = 7.89221e-06, No Iterations 1
DICPCG:  Solving for p, Initial residual = 0.00258055, Final residual = 0.000122034, No Iterations 53
time step continuity errors : sum local = 1.54865e-10, global = 5.94959e-12, cumulative = 1.26333e-09
DICPCG:  Solving for p, Initial residual = 0.00111587, Final residual = 9.73176e-07, No Iterations 204
time step continuity errors : sum local = 1.2339e-12, global = 2.24429e-14, cumulative = 1.26336e-09
ExecutionTime = 12.04 s  ClockTime = 12 s

Time = 4.6

Courant Number mean: 0.00370639 max: 0.0559912
smoothSolver:  Solving for Ux, Initial residual = 0.000487413, Final residual = 2.81625e-06, No Iterations 1
smoothSolver:  Solving for Uy, Initial residual = 0.000636079, Final residual = 7.80587e-06, No Iterations 1
DICPCG:  Solving for p, Initial residual = 0.00255226, Final residual = 0.000120293, No Iterations 53
time step continuity errors : sum local = 1.52197e-10, global = 5.8817e-12, cumulative = 1.26924e-09
DICPCG:  Solving for p, Initial residual = 0.00110475, Final residual = 9.64085e-07, No Iterations 204
time step continuity errors : sum local = 1.21871e-12, global = 2.20528e-14, cumulative = 1.26926e-09
ExecutionTime = 12.15 s  ClockTime = 12 s

Time = 4.65

Courant Number mean: 0.00370606 max: 0.055918
smoothSolver:  Solving for Ux, Initial residual = 0.000483416, Final residual = 2.77764e-06, No Iterations 1
smoothSolver:  Solving for Uy, Initial residual = 0.000631049, Final residual = 7.72103e-06, No Iterations 1
DICPCG:  Solving for p, Initial residual = 0.00252688, Final residual = 0.000119139, No Iterations 53
time step continuity errors : sum local = 1.50288e-10, global = 5.8161e-12, cumulative = 1.27508e-09
DICPCG:  Solving for p, Initial residual = 0.00109455, Final residual = 9.30865e-07, No Iterations 204
time step continuity errors : sum local = 1.17321e-12, global = 2.12881e-14, cumulative = 1.2751e-09
ExecutionTime = 12.26 s  ClockTime = 13 s

Time = 4.7

Courant Number mean: 0.00370573 max: 0.0558446
smoothSolver:  Solving for Ux, Initial residual = 0.0004795, Final residual = 2.74004e-06, No Iterations 1
smoothSolver:  Solving for Uy, Initial residual = 0.000626124, Final residual = 7.63818e-06, No Iterations 1
DICPCG:  Solving for p, Initial residual = 0.00249483, Final residual = 0.000117518, No Iterations 53
time step continuity errors : sum local = 1.47806e-10, global = 5.75214e-12, cumulative = 1.28085e-09
DICPCG:  Solving for p, Initial residual = 0.00108397, Final residual = 9.48659e-07, No Iterations 204
time step continuity errors : sum local = 1.19213e-12, global = 2.14047e-14, cumulative = 1.28087e-09
ExecutionTime = 12.37 s  ClockTime = 13 s

Time = 4.75

Courant Number mean: 0.00370541 max: 0.0557709
smoothSolver:  Solving for Ux, Initial residual = 0.000475659, Final residual = 2.70338e-06, No Iterations 1
smoothSolver:  Solving for Uy, Initial residual = 0.000621297, Final residual = 7.55682e-06, No Iterations 1
DICPCG:  Solving for p, Initial residual = 0.00247137, Final residual = 0.000115961, No Iterations 53
time step continuity errors : sum local = 1.45425e-10, global = 5.68818e-12, cumulative = 1.28656e-09
DICPCG:  Solving for p, Initial residual = 0.00107384, Final residual = 9.38996e-07, No Iterations 204
time step continuity errors : sum local = 1.17658e-12, global = 2.10738e-14, cumulative = 1.28658e-09
ExecutionTime = 12.49 s  ClockTime = 13 s

Time = 4.8

Courant Number mean: 0.00370508 max: 0.055697
smoothSolver:  Solving for Ux, Initial residual = 0.000471884, Final residual = 2.66767e-06, No Iterations 1
smoothSolver:  Solving for Uy, Initial residual = 0.000616581, Final residual = 7.47695e-06, No Iterations 1
DICPCG:  Solving for p, Initial residual = 0.00244462, Final residual = 0.000114556, No Iterations 53
time step continuity errors : sum local = 1.43252e-10, global = 5.62635e-12, cumulative = 1.29221e-09
DICPCG:  Solving for p, Initial residual = 0.00106402, Final residual = 9.31842e-07, No Iterations 204
time step continuity errors : sum local = 1.1643e-12, global = 2.07183e-14, cumulative = 1.29223e-09
ExecutionTime = 12.59 s  ClockTime = 13 s

Time = 4.85

Courant Number mean: 0.00370476 max: 0.0556229
smoothSolver:  Solving for Ux, Initial residual = 0.000468176, Final residual = 2.63283e-06, No Iterations 1
smoothSolver:  Solving for Uy, Initial residual = 0.000611972, Final residual = 7.39862e-06, No Iterations 1
DICPCG:  Solving for p, Initial residual = 0.00242024, Final residual = 0.000113139, No Iterations 53
time step continuity errors : sum local = 1.41081e-10, global = 5.56656e-12, cumulative = 1.29779e-09
DICPCG:  Solving for p, Initial residual = 0.00105415, Final residual = 9.23669e-07, No Iterations 204
time step continuity errors : sum local = 1.15083e-12, global = 2.03313e-14, cumulative = 1.29781e-09
ExecutionTime = 12.7 s  ClockTime = 13 s

Time = 4.9

Courant Number mean: 0.00370445 max: 0.0555486
smoothSolver:  Solving for Ux, Initial residual = 0.000464531, Final residual = 2.59889e-06, No Iterations 1
smoothSolver:  Solving for Uy, Initial residual = 0.000607456, Final residual = 7.32112e-06, No Iterations 1
DICPCG:  Solving for p, Initial residual = 0.00240125, Final residual = 0.000111759, No Iterations 53
time step continuity errors : sum local = 1.3897e-10, global = 5.50687e-12, cumulative = 1.30332e-09
DICPCG:  Solving for p, Initial residual = 0.0010448, Final residual = 9.16469e-07, No Iterations 204
time step continuity errors : sum local = 1.13868e-12, global = 2.00702e-14, cumulative = 1.30334e-09
ExecutionTime = 12.8 s  ClockTime = 13 s

Time = 4.95

Courant Number mean: 0.00370413 max: 0.0554742
smoothSolver:  Solving for Ux, Initial residual = 0.000460953, Final residual = 2.56579e-06, No Iterations 1
smoothSolver:  Solving for Uy, Initial residual = 0.00060305, Final residual = 7.24495e-06, No Iterations 1
DICPCG:  Solving for p, Initial residual = 0.00237316, Final residual = 0.000110548, No Iterations 53
time step continuity errors : sum local = 1.37084e-10, global = 5.44781e-12, cumulative = 1.30879e-09
DICPCG:  Solving for p, Initial residual = 0.00103562, Final residual = 9.06818e-07, No Iterations 204
time step continuity errors : sum local = 1.12357e-12, global = 1.96551e-14, cumulative = 1.30881e-09
ExecutionTime = 12.91 s  ClockTime = 13 s

Time = 5

Courant Number mean: 0.00370382 max: 0.0553996
smoothSolver:  Solving for Ux, Initial residual = 0.000457436, Final residual = 2.53349e-06, No Iterations 1
smoothSolver:  Solving for Uy, Initial residual = 0.000598745, Final residual = 7.1706e-06, No Iterations 1
DICPCG:  Solving for p, Initial residual = 0.00236277, Final residual = 0.000109476, No Iterations 53
time step continuity errors : sum local = 1.35379e-10, global = 5.39096e-12, cumulative = 1.3142e-09
DICPCG:  Solving for p, Initial residual = 0.00102715, Final residual = 9.95147e-07, No Iterations 203
time step continuity errors : sum local = 1.22961e-12, global = 2.43742e-14, cumulative = 1.31422e-09
ExecutionTime = 13.2 s  ClockTime = 13 s

Time = 5.05

Courant Number mean: 0.0037035 max: 0.055325
smoothSolver:  Solving for Ux, Initial residual = 0.000453979, Final residual = 2.50197e-06, No Iterations 1
smoothSolver:  Solving for Uy, Initial residual = 0.000594547, Final residual = 7.09716e-06, No Iterations 1
DICPCG:  Solving for p, Initial residual = 0.00232887, Final residual = 0.00010788, No Iterations 53
time step continuity errors : sum local = 1.33041e-10, global = 5.33407e-12, cumulative = 1.31956e-09
DICPCG:  Solving for p, Initial residual = 0.00101773, Final residual = 9.99965e-07, No Iterations 203
time step continuity errors : sum local = 1.2322e-12, global = 2.42241e-14, cumulative = 1.31958e-09
ExecutionTime = 13.3 s  ClockTime = 14 s

Time = 5.1

Courant Number mean: 0.00370319 max: 0.0552501
smoothSolver:  Solving for Ux, Initial residual = 0.000450581, Final residual = 2.47119e-06, No Iterations 1
smoothSolver:  Solving for Uy, Initial residual = 0.000590414, Final residual = 7.02532e-06, No Iterations 1
DICPCG:  Solving for p, Initial residual = 0.00231177, Final residual = 0.000106673, No Iterations 53
time step continuity errors : sum local = 1.31198e-10, global = 5.27763e-12, cumulative = 1.32486e-09
DICPCG:  Solving for p, Initial residual = 0.00100897, Final residual = 9.89924e-07, No Iterations 203
time step continuity errors : sum local = 1.21657e-12, global = 2.38462e-14, cumulative = 1.32488e-09
ExecutionTime = 13.42 s  ClockTime = 14 s

Time = 5.15

Courant Number mean: 0.00370289 max: 0.0551752
smoothSolver:  Solving for Ux, Initial residual = 0.000447238, Final residual = 2.44116e-06, No Iterations 1
smoothSolver:  Solving for Uy, Initial residual = 0.000586349, Final residual = 6.9547e-06, No Iterations 1
DICPCG:  Solving for p, Initial residual = 0.00229211, Final residual = 0.000105803, No Iterations 53
time step continuity errors : sum local = 1.29782e-10, global = 5.22391e-12, cumulative = 1.33011e-09
DICPCG:  Solving for p, Initial residual = 0.0010011, Final residual = 9.48349e-07, No Iterations 203
time step continuity errors : sum local = 1.16238e-12, global = 2.27258e-14, cumulative = 1.33013e-09
ExecutionTime = 13.53 s  ClockTime = 14 s

Time = 5.2

Courant Number mean: 0.00370258 max: 0.0551002
smoothSolver:  Solving for Ux, Initial residual = 0.000443948, Final residual = 2.41181e-06, No Iterations 1
smoothSolver:  Solving for Uy, Initial residual = 0.000582394, Final residual = 6.88547e-06, No Iterations 1
DICPCG:  Solving for p, Initial residual = 0.0022596, Final residual = 0.000104473, No Iterations 53
time step continuity errors : sum local = 1.27816e-10, global = 5.1703e-12, cumulative = 1.3353e-09
DICPCG:  Solving for p, Initial residual = 0.000992218, Final residual = 9.74247e-07, No Iterations 203
time step continuity errors : sum local = 1.19103e-12, global = 2.30812e-14, cumulative = 1.33532e-09
ExecutionTime = 13.63 s  ClockTime = 14 s

Time = 5.25

Courant Number mean: 0.00370228 max: 0.0550252
smoothSolver:  Solving for Ux, Initial residual = 0.000440713, Final residual = 2.38314e-06, No Iterations 1
smoothSolver:  Solving for Uy, Initial residual = 0.000578494, Final residual = 6.81701e-06, No Iterations 1
DICPCG:  Solving for p, Initial residual = 0.00224017, Final residual = 0.000103319, No Iterations 53
time step continuity errors : sum local = 1.26077e-10, global = 5.11746e-12, cumulative = 1.34044e-09
DICPCG:  Solving for p, Initial residual = 0.000984168, Final residual = 9.66145e-07, No Iterations 203
time step continuity errors : sum local = 1.17809e-12, global = 2.2736e-14, cumulative = 1.34046e-09
ExecutionTime = 13.74 s  ClockTime = 14 s

Time = 5.3

Courant Number mean: 0.00370198 max: 0.0549501
smoothSolver:  Solving for Ux, Initial residual = 0.000437531, Final residual = 2.3551e-06, No Iterations 1
smoothSolver:  Solving for Uy, Initial residual = 0.000574649, Final residual = 6.74955e-06, No Iterations 1
DICPCG:  Solving for p, Initial residual = 0.00222513, Final residual = 0.000102258, No Iterations 53
time step continuity errors : sum local = 1.24465e-10, global = 5.06532e-12, cumulative = 1.34553e-09
DICPCG:  Solving for p, Initial residual = 0.000976202, Final residual = 9.58438e-07, No Iterations 203
time step continuity errors : sum local = 1.16572e-12, global = 2.23774e-14, cumulative = 1.34555e-09
ExecutionTime = 13.84 s  ClockTime = 14 s

Time = 5.35

Courant Number mean: 0.00370167 max: 0.0548749
smoothSolver:  Solving for Ux, Initial residual = 0.0004344, Final residual = 2.32768e-06, No Iterations 1
smoothSolver:  Solving for Uy, Initial residual = 0.000570857, Final residual = 6.68338e-06, No Iterations 1
DICPCG:  Solving for p, Initial residual = 0.00220434, Final residual = 0.00010128, No Iterations 53
time step continuity errors : sum local = 1.22964e-10, global = 5.01523e-12, cumulative = 1.35057e-09
DICPCG:  Solving for p, Initial residual = 0.000968186, Final residual = 9.50077e-07, No Iterations 203
time step continuity errors : sum local = 1.15265e-12, global = 2.20601e-14, cumulative = 1.35059e-09
ExecutionTime = 13.95 s  ClockTime = 14 s

Time = 5.4

Courant Number mean: 0.00370138 max: 0.0547997
smoothSolver:  Solving for Ux, Initial residual = 0.000431319, Final residual = 2.30089e-06, No Iterations 1
smoothSolver:  Solving for Uy, Initial residual = 0.000567109, Final residual = 6.61786e-06, No Iterations 1
DICPCG:  Solving for p, Initial residual = 0.0021867, Final residual = 0.000109314, No Iterations 52
time step continuity errors : sum local = 1.32386e-10, global = 4.97581e-12, cumulative = 1.35556e-09
DICPCG:  Solving for p, Initial residual = 0.000965542, Final residual = 9.33825e-07, No Iterations 203
time step continuity errors : sum local = 1.13011e-12, global = 2.15206e-14, cumulative = 1.35559e-09
ExecutionTime = 14.06 s  ClockTime = 14 s

Time = 5.45

Courant Number mean: 0.00370108 max: 0.0547245
smoothSolver:  Solving for Ux, Initial residual = 0.000428288, Final residual = 2.27468e-06, No Iterations 1
smoothSolver:  Solving for Uy, Initial residual = 0.000563407, Final residual = 6.55343e-06, No Iterations 1
DICPCG:  Solving for p, Initial residual = 0.00216559, Final residual = 0.000108096, No Iterations 52
time step continuity errors : sum local = 1.30586e-10, global = 4.92413e-12, cumulative = 1.36051e-09
[...]
DICPCG:  Solving for p, Initial residual = 0.000148975, Final residual = 9.72839e-07, No Iterations 181
time step continuity errors : sum local = 7.2279e-13, global = -1.59418e-15, cumulative = 2.20495e-09
ExecutionTime = 93.76 s  ClockTime = 95 s

Time = 38.7

Courant Number mean: 0.00361245 max: 0.0332402
smoothSolver:  Solving for Ux, Initial residual = 8.55374e-05, Final residual = 1.87122e-07, No Iterations 1
smoothSolver:  Solving for Uy, Initial residual = 0.000137971, Final residual = 5.75926e-07, No Iterations 1
DICPCG:  Solving for p, Initial residual = 0.000337082, Final residual = 1.55966e-05, No Iterations 52
time step continuity errors : sum local = 1.15855e-11, global = 3.79387e-13, cumulative = 2.20533e-09
DICPCG:  Solving for p, Initial residual = 0.000148596, Final residual = 9.69328e-07, No Iterations 181
time step continuity errors : sum local = 7.1997e-13, global = -1.63322e-15, cumulative = 2.20533e-09
ExecutionTime = 93.85 s  ClockTime = 95 s

Time = 38.75

Courant Number mean: 0.00361238 max: 0.0332272
smoothSolver:  Solving for Ux, Initial residual = 8.54419e-05, Final residual = 1.86796e-07, No Iterations 1
smoothSolver:  Solving for Uy, Initial residual = 0.000137834, Final residual = 5.74893e-07, No Iterations 1
DICPCG:  Solving for p, Initial residual = 0.000336532, Final residual = 1.56055e-05, No Iterations 52
time step continuity errors : sum local = 1.15886e-11, global = 3.78593e-13, cumulative = 2.20571e-09
DICPCG:  Solving for p, Initial residual = 0.000148378, Final residual = 9.70524e-07, No Iterations 181
time step continuity errors : sum local = 7.20647e-13, global = -1.63865e-15, cumulative = 2.2057e-09
ExecutionTime = 93.95 s  ClockTime = 95 s

Time = 38.8

Courant Number mean: 0.0036123 max: 0.0332143
smoothSolver:  Solving for Ux, Initial residual = 8.53466e-05, Final residual = 1.86471e-07, No Iterations 1
smoothSolver:  Solving for Uy, Initial residual = 0.000137698, Final residual = 5.73863e-07, No Iterations 1
DICPCG:  Solving for p, Initial residual = 0.000336063, Final residual = 1.57545e-05, No Iterations 52
time step continuity errors : sum local = 1.16959e-11, global = 3.77812e-13, cumulative = 2.20608e-09
DICPCG:  Solving for p, Initial residual = 0.000148189, Final residual = 9.64217e-07, No Iterations 181
time step continuity errors : sum local = 7.15755e-13, global = -1.77042e-15, cumulative = 2.20608e-09
ExecutionTime = 94.04 s  ClockTime = 95 s

Time = 38.85

Courant Number mean: 0.00361222 max: 0.0332013
smoothSolver:  Solving for Ux, Initial residual = 8.52514e-05, Final residual = 1.86147e-07, No Iterations 1
smoothSolver:  Solving for Uy, Initial residual = 0.000137562, Final residual = 5.72837e-07, No Iterations 1
DICPCG:  Solving for p, Initial residual = 0.000335522, Final residual = 1.56294e-05, No Iterations 52
time step continuity errors : sum local = 1.15996e-11, global = 3.77066e-13, cumulative = 2.20646e-09
DICPCG:  Solving for p, Initial residual = 0.000148003, Final residual = 9.65973e-07, No Iterations 181
time step continuity errors : sum local = 7.1685e-13, global = -1.74876e-15, cumulative = 2.20646e-09
ExecutionTime = 94.14 s  ClockTime = 95 s

Time = 38.9

Courant Number mean: 0.00361214 max: 0.0331884
smoothSolver:  Solving for Ux, Initial residual = 8.51565e-05, Final residual = 1.85824e-07, No Iterations 1
smoothSolver:  Solving for Uy, Initial residual = 0.000137427, Final residual = 5.71813e-07, No Iterations 1
DICPCG:  Solving for p, Initial residual = 0.000338922, Final residual = 1.69114e-05, No Iterations 51
time step continuity errors : sum local = 1.25474e-11, global = 3.68296e-13, cumulative = 2.20682e-09
DICPCG:  Solving for p, Initial residual = 0.000149146, Final residual = 9.67107e-07, No Iterations 181
time step continuity errors : sum local = 7.17478e-13, global = -1.84594e-15, cumulative = 2.20682e-09
ExecutionTime = 94.23 s  ClockTime = 96 s

Time = 38.95

Courant Number mean: 0.00361207 max: 0.0331755
smoothSolver:  Solving for Ux, Initial residual = 8.50619e-05, Final residual = 1.85503e-07, No Iterations 1
smoothSolver:  Solving for Uy, Initial residual = 0.000137292, Final residual = 5.70783e-07, No Iterations 1
DICPCG:  Solving for p, Initial residual = 0.000339008, Final residual = 1.55425e-05, No Iterations 52
time step continuity errors : sum local = 1.15283e-11, global = 3.75285e-13, cumulative = 2.2072e-09
DICPCG:  Solving for p, Initial residual = 0.000147962, Final residual = 9.63156e-07, No Iterations 181
time step continuity errors : sum local = 7.14333e-13, global = -1.8066e-15, cumulative = 2.2072e-09
ExecutionTime = 94.33 s  ClockTime = 96 s

Time = 39

Courant Number mean: 0.00361199 max: 0.0331626
smoothSolver:  Solving for Ux, Initial residual = 8.49674e-05, Final residual = 1.85183e-07, No Iterations 1
smoothSolver:  Solving for Uy, Initial residual = 0.000137156, Final residual = 5.69755e-07, No Iterations 1
DICPCG:  Solving for p, Initial residual = 0.000334711, Final residual = 1.56935e-05, No Iterations 52
time step continuity errors : sum local = 1.16368e-11, global = 3.74845e-13, cumulative = 2.20757e-09
DICPCG:  Solving for p, Initial residual = 0.0001475, Final residual = 9.62036e-07, No Iterations 181
time step continuity errors : sum local = 7.13294e-13, global = -1.56843e-15, cumulative = 2.20757e-09
ExecutionTime = 94.61 s  ClockTime = 96 s

Time = 39.05

Courant Number mean: 0.00361191 max: 0.0331498
smoothSolver:  Solving for Ux, Initial residual = 8.48732e-05, Final residual = 1.84862e-07, No Iterations 1
smoothSolver:  Solving for Uy, Initial residual = 0.000137021, Final residual = 5.68741e-07, No Iterations 1
DICPCG:  Solving for p, Initial residual = 0.000335166, Final residual = 1.55564e-05, No Iterations 52
time step continuity errors : sum local = 1.15318e-11, global = 3.74075e-13, cumulative = 2.20794e-09
DICPCG:  Solving for p, Initial residual = 0.000147176, Final residual = 9.97163e-07, No Iterations 180
time step continuity errors : sum local = 7.39123e-13, global = 6.18516e-16, cumulative = 2.20794e-09
ExecutionTime = 94.71 s  ClockTime = 96 s

Time = 39.1

Courant Number mean: 0.00361184 max: 0.0331369
smoothSolver:  Solving for Ux, Initial residual = 8.47792e-05, Final residual = 1.84543e-07, No Iterations 1
smoothSolver:  Solving for Uy, Initial residual = 0.000136888, Final residual = 5.67727e-07, No Iterations 1
DICPCG:  Solving for p, Initial residual = 0.00033447, Final residual = 1.5758e-05, No Iterations 52
time step continuity errors : sum local = 1.16779e-11, global = 3.73726e-13, cumulative = 2.20832e-09
DICPCG:  Solving for p, Initial residual = 0.000147096, Final residual = 9.67494e-07, No Iterations 181
time step continuity errors : sum local = 7.16922e-13, global = -1.73216e-15, cumulative = 2.20832e-09
ExecutionTime = 94.81 s  ClockTime = 96 s

Time = 39.15

Courant Number mean: 0.00361176 max: 0.0331241
smoothSolver:  Solving for Ux, Initial residual = 8.46854e-05, Final residual = 1.84224e-07, No Iterations 1
smoothSolver:  Solving for Uy, Initial residual = 0.000136753, Final residual = 5.66726e-07, No Iterations 1
DICPCG:  Solving for p, Initial residual = 0.000333925, Final residual = 1.56048e-05, No Iterations 52
time step continuity errors : sum local = 1.1561e-11, global = 3.72435e-13, cumulative = 2.20869e-09
DICPCG:  Solving for p, Initial residual = 0.000146856, Final residual = 9.59737e-07, No Iterations 181
time step continuity errors : sum local = 7.10967e-13, global = -1.74815e-15, cumulative = 2.20869e-09
ExecutionTime = 94.91 s  ClockTime = 96 s

Time = 39.2

Courant Number mean: 0.00361168 max: 0.0331113
smoothSolver:  Solving for Ux, Initial residual = 8.45918e-05, Final residual = 1.83907e-07, No Iterations 1
smoothSolver:  Solving for Uy, Initial residual = 0.00013662, Final residual = 5.65719e-07, No Iterations 1
DICPCG:  Solving for p, Initial residual = 0.000333393, Final residual = 1.55852e-05, No Iterations 52
time step continuity errors : sum local = 1.15431e-11, global = 3.7189e-13, cumulative = 2.20906e-09
DICPCG:  Solving for p, Initial residual = 0.000146642, Final residual = 9.96987e-07, No Iterations 180
time step continuity errors : sum local = 7.38348e-13, global = 8.76501e-16, cumulative = 2.20906e-09
ExecutionTime = 95.01 s  ClockTime = 96 s

Time = 39.25

Courant Number mean: 0.00361161 max: 0.0330985
smoothSolver:  Solving for Ux, Initial residual = 8.44985e-05, Final residual = 1.8359e-07, No Iterations 1
smoothSolver:  Solving for Uy, Initial residual = 0.000136488, Final residual = 5.64715e-07, No Iterations 1
DICPCG:  Solving for p, Initial residual = 0.000332936, Final residual = 1.55026e-05, No Iterations 52
time step continuity errors : sum local = 1.14786e-11, global = 3.71472e-13, cumulative = 2.20943e-09
DICPCG:  Solving for p, Initial residual = 0.000146421, Final residual = 9.93554e-07, No Iterations 180
time step continuity errors : sum local = 7.35592e-13, global = 4.90997e-16, cumulative = 2.20943e-09
ExecutionTime = 95.1 s  ClockTime = 96 s

Time = 39.3

Courant Number mean: 0.00361153 max: 0.0330858
smoothSolver:  Solving for Ux, Initial residual = 8.44054e-05, Final residual = 1.83274e-07, No Iterations 1
smoothSolver:  Solving for Uy, Initial residual = 0.000136354, Final residual = 5.63719e-07, No Iterations 1
DICPCG:  Solving for p, Initial residual = 0.000332389, Final residual = 1.56902e-05, No Iterations 52
time step continuity errors : sum local = 1.16141e-11, global = 3.70478e-13, cumulative = 2.2098e-09
DICPCG:  Solving for p, Initial residual = 0.000146255, Final residual = 9.94324e-07, No Iterations 180
time step continuity errors : sum local = 7.35948e-13, global = 6.05939e-16, cumulative = 2.2098e-09
ExecutionTime = 95.2 s  ClockTime = 97 s

Time = 39.35

Courant Number mean: 0.00361145 max: 0.033073
smoothSolver:  Solving for Ux, Initial residual = 8.43124e-05, Final residual = 1.8296e-07, No Iterations 1
smoothSolver:  Solving for Uy, Initial residual = 0.000136221, Final residual = 5.62722e-07, No Iterations 1
DICPCG:  Solving for p, Initial residual = 0.00033191, Final residual = 1.54922e-05, No Iterations 52
time step continuity errors : sum local = 1.14642e-11, global = 3.69816e-13, cumulative = 2.21017e-09
DICPCG:  Solving for p, Initial residual = 0.000145966, Final residual = 9.90925e-07, No Iterations 180
time step continuity errors : sum local = 7.3322e-13, global = 5.47177e-16, cumulative = 2.21017e-09
ExecutionTime = 95.29 s  ClockTime = 97 s

Time = 39.4

Courant Number mean: 0.00361138 max: 0.0330603
smoothSolver:  Solving for Ux, Initial residual = 8.42197e-05, Final residual = 1.82646e-07, No Iterations 1
smoothSolver:  Solving for Uy, Initial residual = 0.000136088, Final residual = 5.6173e-07, No Iterations 1
DICPCG:  Solving for p, Initial residual = 0.000331395, Final residual = 1.54861e-05, No Iterations 52
time step continuity errors : sum local = 1.14564e-11, global = 3.69087e-13, cumulative = 2.21054e-09
DICPCG:  Solving for p, Initial residual = 0.000145806, Final residual = 9.90262e-07, No Iterations 180
time step continuity errors : sum local = 7.32518e-13, global = 4.35951e-16, cumulative = 2.21054e-09
ExecutionTime = 95.4 s  ClockTime = 97 s

Time = 39.45

Courant Number mean: 0.0036113 max: 0.0330476
smoothSolver:  Solving for Ux, Initial residual = 8.41273e-05, Final residual = 1.82333e-07, No Iterations 1
smoothSolver:  Solving for Uy, Initial residual = 0.000135956, Final residual = 5.6074e-07, No Iterations 1
DICPCG:  Solving for p, Initial residual = 0.000330916, Final residual = 1.53567e-05, No Iterations 52
time step continuity errors : sum local = 1.13574e-11, global = 3.68405e-13, cumulative = 2.21091e-09
DICPCG:  Solving for p, Initial residual = 0.000145554, Final residual = 9.85602e-07, No Iterations 180
time step continuity errors : sum local = 7.28861e-13, global = 7.23222e-16, cumulative = 2.21091e-09
ExecutionTime = 95.49 s  ClockTime = 97 s

Time = 39.5

Courant Number mean: 0.00361122 max: 0.0330349
smoothSolver:  Solving for Ux, Initial residual = 8.40351e-05, Final residual = 1.82021e-07, No Iterations 1
smoothSolver:  Solving for Uy, Initial residual = 0.000135824, Final residual = 5.59753e-07, No Iterations 1
DICPCG:  Solving for p, Initial residual = 0.000330465, Final residual = 1.54295e-05, No Iterations 52
time step continuity errors : sum local = 1.1408e-11, global = 3.67682e-13, cumulative = 2.21128e-09
DICPCG:  Solving for p, Initial residual = 0.000145386, Final residual = 9.7771e-07, No Iterations 180
time step continuity errors : sum local = 7.22817e-13, global = 7.51253e-16, cumulative = 2.21128e-09
ExecutionTime = 95.77 s  ClockTime = 97 s

Time = 39.55

Courant Number mean: 0.00361115 max: 0.0330223
smoothSolver:  Solving for Ux, Initial residual = 8.3943e-05, Final residual = 1.8171e-07, No Iterations 1
smoothSolver:  Solving for Uy, Initial residual = 0.000135692, Final residual = 5.58767e-07, No Iterations 1
DICPCG:  Solving for p, Initial residual = 0.000329981, Final residual = 1.55505e-05, No Iterations 52
time step continuity errors : sum local = 1.14941e-11, global = 3.67047e-13, cumulative = 2.21165e-09
DICPCG:  Solving for p, Initial residual = 0.000145246, Final residual = 9.93865e-07, No Iterations 180
time step continuity errors : sum local = 7.34549e-13, global = 6.84986e-16, cumulative = 2.21165e-09
ExecutionTime = 95.87 s  ClockTime = 97 s

Time = 39.6

Courant Number mean: 0.00361107 max: 0.0330096
smoothSolver:  Solving for Ux, Initial residual = 8.38512e-05, Final residual = 1.814e-07, No Iterations 1
smoothSolver:  Solving for Uy, Initial residual = 0.00013556, Final residual = 5.57786e-07, No Iterations 1
DICPCG:  Solving for p, Initial residual = 0.000329519, Final residual = 1.54077e-05, No Iterations 52
time step continuity errors : sum local = 1.13853e-11, global = 3.66299e-13, cumulative = 2.21201e-09
DICPCG:  Solving for p, Initial residual = 0.000144995, Final residual = 9.88478e-07, No Iterations 180
time step continuity errors : sum local = 7.30357e-13, global = 6.04902e-16, cumulative = 2.21201e-09
ExecutionTime = 95.96 s  ClockTime = 97 s

Time = 39.65

Courant Number mean: 0.003611 max: 0.032997
smoothSolver:  Solving for Ux, Initial residual = 8.37596e-05, Final residual = 1.8109e-07, No Iterations 1
smoothSolver:  Solving for Uy, Initial residual = 0.000135429, Final residual = 5.56806e-07, No Iterations 1
DICPCG:  Solving for p, Initial residual = 0.000329026, Final residual = 1.53184e-05, No Iterations 52
time step continuity errors : sum local = 1.13161e-11, global = 3.65464e-13, cumulative = 2.21238e-09
DICPCG:  Solving for p, Initial residual = 0.000144695, Final residual = 9.77276e-07, No Iterations 180
time step continuity errors : sum local = 7.21873e-13, global = 5.04048e-16, cumulative = 2.21238e-09
ExecutionTime = 96.06 s  ClockTime = 97 s

Time = 39.7

Courant Number mean: 0.00361092 max: 0.0329844
smoothSolver:  Solving for Ux, Initial residual = 8.36681e-05, Final residual = 1.80782e-07, No Iterations 1
smoothSolver:  Solving for Uy, Initial residual = 0.000135298, Final residual = 5.55828e-07, No Iterations 1
DICPCG:  Solving for p, Initial residual = 0.000328554, Final residual = 1.55529e-05, No Iterations 52
time step continuity errors : sum local = 1.1486e-11, global = 3.64741e-13, cumulative = 2.21275e-09
DICPCG:  Solving for p, Initial residual = 0.000144582, Final residual = 9.78933e-07, No Iterations 180
time step continuity errors : sum local = 7.2289e-13, global = 5.53567e-16, cumulative = 2.21275e-09
ExecutionTime = 96.16 s  ClockTime = 98 s

Time = 39.75

Courant Number mean: 0.00361084 max: 0.0329718
smoothSolver:  Solving for Ux, Initial residual = 8.35769e-05, Final residual = 1.80474e-07, No Iterations 1
smoothSolver:  Solving for Uy, Initial residual = 0.000135168, Final residual = 5.54855e-07, No Iterations 1
DICPCG:  Solving for p, Initial residual = 0.000328119, Final residual = 1.52498e-05, No Iterations 52
time step continuity errors : sum local = 1.12589e-11, global = 3.64087e-13, cumulative = 2.21311e-09
DICPCG:  Solving for p, Initial residual = 0.000144352, Final residual = 9.68771e-07, No Iterations 180
time step continuity errors : sum local = 7.15181e-13, global = 5.58719e-16, cumulative = 2.21311e-09
ExecutionTime = 96.25 s  ClockTime = 98 s

Time = 39.8

Courant Number mean: 0.00361077 max: 0.0329592
smoothSolver:  Solving for Ux, Initial residual = 8.34858e-05, Final residual = 1.80167e-07, No Iterations 1
smoothSolver:  Solving for Uy, Initial residual = 0.000135037, Final residual = 5.53886e-07, No Iterations 1
DICPCG:  Solving for p, Initial residual = 0.000327659, Final residual = 1.52426e-05, No Iterations 52
time step continuity errors : sum local = 1.12504e-11, global = 3.63379e-13, cumulative = 2.21347e-09
DICPCG:  Solving for p, Initial residual = 0.000144107, Final residual = 9.70565e-07, No Iterations 180
time step continuity errors : sum local = 7.16301e-13, global = 5.49314e-16, cumulative = 2.21347e-09
ExecutionTime = 96.35 s  ClockTime = 98 s

Time = 39.85

Courant Number mean: 0.00361069 max: 0.0329467
smoothSolver:  Solving for Ux, Initial residual = 8.3395e-05, Final residual = 1.79861e-07, No Iterations 1
smoothSolver:  Solving for Uy, Initial residual = 0.000134907, Final residual = 5.52918e-07, No Iterations 1
DICPCG:  Solving for p, Initial residual = 0.000327213, Final residual = 1.53256e-05, No Iterations 52
time step continuity errors : sum local = 1.13084e-11, global = 3.62616e-13, cumulative = 2.21384e-09
DICPCG:  Solving for p, Initial residual = 0.000144001, Final residual = 9.63944e-07, No Iterations 180
time step continuity errors : sum local = 7.11212e-13, global = 6.18703e-16, cumulative = 2.21384e-09
ExecutionTime = 96.45 s  ClockTime = 98 s

Time = 39.9

Courant Number mean: 0.00361062 max: 0.0329341
smoothSolver:  Solving for Ux, Initial residual = 8.33043e-05, Final residual = 1.79557e-07, No Iterations 1
smoothSolver:  Solving for Uy, Initial residual = 0.000134778, Final residual = 5.51953e-07, No Iterations 1
DICPCG:  Solving for p, Initial residual = 0.000326791, Final residual = 1.51808e-05, No Iterations 52
time step continuity errors : sum local = 1.11984e-11, global = 3.62016e-13, cumulative = 2.2142e-09
DICPCG:  Solving for p, Initial residual = 0.000143706, Final residual = 9.70901e-07, No Iterations 180
time step continuity errors : sum local = 7.1614e-13, global = 5.46577e-16, cumulative = 2.2142e-09
ExecutionTime = 96.54 s  ClockTime = 98 s

Time = 39.95

Courant Number mean: 0.00361054 max: 0.0329216
smoothSolver:  Solving for Ux, Initial residual = 8.32139e-05, Final residual = 1.79252e-07, No Iterations 1
smoothSolver:  Solving for Uy, Initial residual = 0.000134648, Final residual = 5.50992e-07, No Iterations 1
DICPCG:  Solving for p, Initial residual = 0.000326337, Final residual = 1.52717e-05, No Iterations 52
time step continuity errors : sum local = 1.12622e-11, global = 3.61203e-13, cumulative = 2.21456e-09
DICPCG:  Solving for p, Initial residual = 0.000143553, Final residual = 9.65666e-07, No Iterations 180
time step continuity errors : sum local = 7.12077e-13, global = 4.58619e-16, cumulative = 2.21456e-09
ExecutionTime = 96.65 s  ClockTime = 98 s

Time = 40

Courant Number mean: 0.00361047 max: 0.0329091
smoothSolver:  Solving for Ux, Initial residual = 8.31238e-05, Final residual = 1.78949e-07, No Iterations 1
smoothSolver:  Solving for Uy, Initial residual = 0.000134519, Final residual = 5.50032e-07, No Iterations 1
DICPCG:  Solving for p, Initial residual = 0.000325899, Final residual = 1.53978e-05, No Iterations 52
time step continuity errors : sum local = 1.1352e-11, global = 3.6051e-13, cumulative = 2.21492e-09
DICPCG:  Solving for p, Initial residual = 0.000143381, Final residual = 9.68122e-07, No Iterations 180
time step continuity errors : sum local = 7.13685e-13, global = 5.12095e-16, cumulative = 2.21492e-09
ExecutionTime = 96.94 s  ClockTime = 98 s

End

