/*---------------------------------------------------------------------------*\
  =========                 |
  \\      /  F ield         | OpenFOAM: The Open Source CFD Toolbox
   \\    /   O peration     | Website:  https://openfoam.org
    \\  /    A nd           | Version:  7
     \\/     M anipulation  |
\*---------------------------------------------------------------------------*/
Build  : 7-49b2b3b8b082
Exec   : icoFoam
Date   : May 14 2021
Time   : 01:09:43
Host   : "c401-084.stampede2.tacc.utexas.edu"
PID    : 227119
I/O    : uncollated
Case   : /work2/06782/kenmeyer/stampede2/final_serial/COE347/finalProject/spline05
nProcs : 1
sigFpe : Enabling floating point exception trapping (FOAM_SIGFPE).
fileModificationChecking : Monitoring run-time modified files using timeStampMaster (fileModificationSkew 10)
allowSystemOperations : Allowing user-supplied system call operations

// * * * * * * * * * * * * * * * * * * * * * * * * * * * * * * * * * * * * * //
Create time

Create mesh for time = 0

Reading transportProperties

Reading field p

Reading field U

Reading/calculating face flux field phi


Starting time loop

Time = 0.01

Courant Number mean: 0.000752937 max: 0.0123543
smoothSolver:  Solving for Ux, Initial residual = 1, Final residual = 2.70236e-06, No Iterations 3
smoothSolver:  Solving for Uy, Initial residual = 0, Final residual = 0, No Iterations 0
DICPCG:  Solving for p, Initial residual = 1, Final residual = 0.0488666, No Iterations 186
time step continuity errors : sum local = 2.33122e-08, global = 2.46447e-10, cumulative = 2.46447e-10
DICPCG:  Solving for p, Initial residual = 0.0908485, Final residual = 9.59475e-07, No Iterations 250
time step continuity errors : sum local = 2.27795e-12, global = -2.5489e-14, cumulative = 2.46422e-10
ExecutionTime = 0.39 s  ClockTime = 0 s

Time = 0.02

Courant Number mean: 0.000757338 max: 0.0172547
smoothSolver:  Solving for Ux, Initial residual = 0.176886, Final residual = 4.21018e-06, No Iterations 2
smoothSolver:  Solving for Uy, Initial residual = 0.315442, Final residual = 7.37018e-06, No Iterations 2
DICPCG:  Solving for p, Initial residual = 0.263092, Final residual = 0.0127453, No Iterations 184
time step continuity errors : sum local = 2.73193e-08, global = -6.24303e-11, cumulative = 1.83991e-10
DICPCG:  Solving for p, Initial residual = 0.470818, Final residual = 9.82293e-07, No Iterations 261
time step continuity errors : sum local = 4.52631e-13, global = -3.1899e-15, cumulative = 1.83988e-10
ExecutionTime = 0.56 s  ClockTime = 1 s

Time = 0.03

Courant Number mean: 0.000757176 max: 0.0174419
smoothSolver:  Solving for Ux, Initial residual = 0.00408116, Final residual = 3.2151e-07, No Iterations 2
smoothSolver:  Solving for Uy, Initial residual = 0.00561367, Final residual = 2.04962e-07, No Iterations 2
DICPCG:  Solving for p, Initial residual = 0.252612, Final residual = 0.0117174, No Iterations 20
time step continuity errors : sum local = 3.18733e-09, global = -8.42091e-14, cumulative = 1.83904e-10
DICPCG:  Solving for p, Initial residual = 0.0236083, Final residual = 8.44095e-07, No Iterations 226
time step continuity errors : sum local = 1.81013e-13, global = -4.62641e-16, cumulative = 1.83904e-10
ExecutionTime = 0.66 s  ClockTime = 1 s

Time = 0.04

Courant Number mean: 0.000756981 max: 0.0174242
smoothSolver:  Solving for Ux, Initial residual = 0.00491423, Final residual = 3.90082e-07, No Iterations 2
smoothSolver:  Solving for Uy, Initial residual = 0.00577581, Final residual = 1.64145e-07, No Iterations 2
DICPCG:  Solving for p, Initial residual = 0.128848, Final residual = 0.00610468, No Iterations 29
time step continuity errors : sum local = 1.20156e-09, global = 4.77942e-17, cumulative = 1.83904e-10
DICPCG:  Solving for p, Initial residual = 0.0125109, Final residual = 9.58724e-07, No Iterations 227
time step continuity errors : sum local = 1.69294e-13, global = 1.7363e-16, cumulative = 1.83904e-10
ExecutionTime = 0.76 s  ClockTime = 1 s

Time = 0.05

Courant Number mean: 0.000756803 max: 0.0173728
smoothSolver:  Solving for Ux, Initial residual = 0.005089, Final residual = 4.56586e-07, No Iterations 2
smoothSolver:  Solving for Uy, Initial residual = 0.00513022, Final residual = 9.39998e-06, No Iterations 1
DICPCG:  Solving for p, Initial residual = 0.0969583, Final residual = 0.00469065, No Iterations 33
time step continuity errors : sum local = 7.65616e-10, global = 2.14333e-15, cumulative = 1.83906e-10
DICPCG:  Solving for p, Initial residual = 0.00961632, Final residual = 9.3789e-07, No Iterations 224
time step continuity errors : sum local = 1.41984e-13, global = 1.54049e-15, cumulative = 1.83907e-10
ExecutionTime = 0.87 s  ClockTime = 1 s

Time = 0.06

Courant Number mean: 0.000756638 max: 0.0172926
smoothSolver:  Solving for Ux, Initial residual = 0.00531956, Final residual = 5.16881e-07, No Iterations 2
smoothSolver:  Solving for Uy, Initial residual = 0.00466714, Final residual = 8.6893e-06, No Iterations 1
DICPCG:  Solving for p, Initial residual = 0.0795961, Final residual = 0.00344928, No Iterations 37
time step continuity errors : sum local = 4.89656e-10, global = 2.13386e-15, cumulative = 1.8391e-10
DICPCG:  Solving for p, Initial residual = 0.0075845, Final residual = 9.60333e-07, No Iterations 222
time step continuity errors : sum local = 1.28406e-13, global = 1.51612e-16, cumulative = 1.8391e-10
ExecutionTime = 0.98 s  ClockTime = 1 s

Time = 0.07

Courant Number mean: 0.000756484 max: 0.0171887
smoothSolver:  Solving for Ux, Initial residual = 0.00554365, Final residual = 5.68752e-07, No Iterations 2
smoothSolver:  Solving for Uy, Initial residual = 0.00429466, Final residual = 8.14618e-06, No Iterations 1
DICPCG:  Solving for p, Initial residual = 0.068337, Final residual = 0.00319086, No Iterations 37
time step continuity errors : sum local = 4.04162e-10, global = 1.24471e-15, cumulative = 1.83911e-10
DICPCG:  Solving for p, Initial residual = 0.0065879, Final residual = 8.71303e-07, No Iterations 222
time step continuity errors : sum local = 1.05071e-13, global = 2.06313e-16, cumulative = 1.83911e-10
ExecutionTime = 1.09 s  ClockTime = 1 s

Time = 0.08

Courant Number mean: 0.000756339 max: 0.0170656
smoothSolver:  Solving for Ux, Initial residual = 0.00569044, Final residual = 6.05852e-07, No Iterations 2
smoothSolver:  Solving for Uy, Initial residual = 0.00398544, Final residual = 7.69235e-06, No Iterations 1
DICPCG:  Solving for p, Initial residual = 0.0604135, Final residual = 0.0029138, No Iterations 37
time step continuity errors : sum local = 3.35608e-10, global = 1.40903e-15, cumulative = 1.83913e-10
DICPCG:  Solving for p, Initial residual = 0.00576561, Final residual = 9.92841e-07, No Iterations 221
time step continuity errors : sum local = 1.09824e-13, global = 3.17242e-16, cumulative = 1.83913e-10
ExecutionTime = 1.19 s  ClockTime = 1 s

Time = 0.09

Courant Number mean: 0.000756203 max: 0.0169272
smoothSolver:  Solving for Ux, Initial residual = 0.00491049, Final residual = 5.35587e-07, No Iterations 2
smoothSolver:  Solving for Uy, Initial residual = 0.0037217, Final residual = 7.27431e-06, No Iterations 1
DICPCG:  Solving for p, Initial residual = 0.0535369, Final residual = 0.00266919, No Iterations 39
time step continuity errors : sum local = 2.83509e-10, global = 2.0006e-15, cumulative = 1.83915e-10
DICPCG:  Solving for p, Initial residual = 0.00526285, Final residual = 9.74249e-07, No Iterations 219
time step continuity errors : sum local = 9.99191e-14, global = 6.22935e-16, cumulative = 1.83915e-10
ExecutionTime = 1.3 s  ClockTime = 1 s

Time = 0.1

Courant Number mean: 0.000756075 max: 0.0167769
smoothSolver:  Solving for Ux, Initial residual = 0.00393237, Final residual = 4.3502e-07, No Iterations 2
smoothSolver:  Solving for Uy, Initial residual = 0.00349466, Final residual = 6.88747e-06, No Iterations 1
DICPCG:  Solving for p, Initial residual = 0.0489456, Final residual = 0.00242309, No Iterations 40
time step continuity errors : sum local = 2.39967e-10, global = 2.21287e-15, cumulative = 1.83918e-10
DICPCG:  Solving for p, Initial residual = 0.0045838, Final residual = 9.03113e-07, No Iterations 218
time step continuity errors : sum local = 8.68189e-14, global = 4.08566e-16, cumulative = 1.83918e-10
ExecutionTime = 1.4 s  ClockTime = 1 s

Time = 0.11

Courant Number mean: 0.000755954 max: 0.0166176
smoothSolver:  Solving for Ux, Initial residual = 0.0032426, Final residual = 3.61237e-07, No Iterations 2
smoothSolver:  Solving for Uy, Initial residual = 0.00329702, Final residual = 6.52144e-06, No Iterations 1
DICPCG:  Solving for p, Initial residual = 0.0436122, Final residual = 0.00207292, No Iterations 41
time step continuity errors : sum local = 1.93598e-10, global = 2.84266e-15, cumulative = 1.83921e-10
DICPCG:  Solving for p, Initial residual = 0.00404227, Final residual = 9.37484e-07, No Iterations 217
time step continuity errors : sum local = 8.54995e-14, global = 1.87945e-16, cumulative = 1.83921e-10
ExecutionTime = 1.51 s  ClockTime = 1 s

Time = 0.12

Courant Number mean: 0.000755839 max: 0.0164516
smoothSolver:  Solving for Ux, Initial residual = 0.00274026, Final residual = 3.05879e-07, No Iterations 2
smoothSolver:  Solving for Uy, Initial residual = 0.00312262, Final residual = 6.18537e-06, No Iterations 1
DICPCG:  Solving for p, Initial residual = 0.0405597, Final residual = 0.00189463, No Iterations 41
time step continuity errors : sum local = 1.69031e-10, global = 2.49202e-15, cumulative = 1.83924e-10
DICPCG:  Solving for p, Initial residual = 0.00368845, Final residual = 9.33724e-07, No Iterations 217
time step continuity errors : sum local = 8.19515e-14, global = 2.5251e-16, cumulative = 1.83924e-10
ExecutionTime = 1.61 s  ClockTime = 2 s

Time = 0.13

Courant Number mean: 0.000755729 max: 0.016281
smoothSolver:  Solving for Ux, Initial residual = 0.00236057, Final residual = 2.63171e-07, No Iterations 2
smoothSolver:  Solving for Uy, Initial residual = 0.00296771, Final residual = 5.88051e-06, No Iterations 1
DICPCG:  Solving for p, Initial residual = 0.0351671, Final residual = 0.00172114, No Iterations 43
time step continuity errors : sum local = 1.48745e-10, global = 3.75464e-15, cumulative = 1.83928e-10
DICPCG:  Solving for p, Initial residual = 0.00313587, Final residual = 8.72115e-07, No Iterations 212
time step continuity errors : sum local = 7.463e-14, global = -1.21396e-16, cumulative = 1.83928e-10
ExecutionTime = 1.72 s  ClockTime = 2 s

Time = 0.14

Courant Number mean: 0.000755624 max: 0.0161076
smoothSolver:  Solving for Ux, Initial residual = 0.00206618, Final residual = 2.29558e-07, No Iterations 2
smoothSolver:  Solving for Uy, Initial residual = 0.00282795, Final residual = 5.59318e-06, No Iterations 1
DICPCG:  Solving for p, Initial residual = 0.0320286, Final residual = 0.0015686, No Iterations 43
time step continuity errors : sum local = 1.32595e-10, global = 2.92146e-15, cumulative = 1.8393e-10
DICPCG:  Solving for p, Initial residual = 0.00278623, Final residual = 9.95169e-07, No Iterations 210
time step continuity errors : sum local = 8.3496e-14, global = 4.38054e-16, cumulative = 1.83931e-10
ExecutionTime = 1.82 s  ClockTime = 2 s

Time = 0.15

Courant Number mean: 0.000755524 max: 0.0160651
smoothSolver:  Solving for Ux, Initial residual = 0.00183157, Final residual = 9.10614e-06, No Iterations 1
smoothSolver:  Solving for Uy, Initial residual = 0.00270175, Final residual = 5.33399e-06, No Iterations 1
DICPCG:  Solving for p, Initial residual = 0.0284921, Final residual = 0.00123615, No Iterations 45
time step continuity errors : sum local = 1.02668e-10, global = 3.23133e-15, cumulative = 1.83934e-10
DICPCG:  Solving for p, Initial residual = 0.00237633, Final residual = 9.92678e-07, No Iterations 209
time step continuity errors : sum local = 8.19769e-14, global = 8.016e-16, cumulative = 1.83935e-10
ExecutionTime = 1.93 s  ClockTime = 2 s

Time = 0.16

Courant Number mean: 0.000755427 max: 0.0160754
smoothSolver:  Solving for Ux, Initial residual = 0.00164079, Final residual = 8.13768e-06, No Iterations 1
smoothSolver:  Solving for Uy, Initial residual = 0.00258691, Final residual = 5.09506e-06, No Iterations 1
DICPCG:  Solving for p, Initial residual = 0.0263997, Final residual = 0.00115676, No Iterations 45
time step continuity errors : sum local = 9.46551e-11, global = 2.79726e-15, cumulative = 1.83938e-10
DICPCG:  Solving for p, Initial residual = 0.00222496, Final residual = 9.99861e-07, No Iterations 207
time step continuity errors : sum local = 8.14009e-14, global = 1.55579e-15, cumulative = 1.83939e-10
ExecutionTime = 2.03 s  ClockTime = 2 s

Time = 0.17

Courant Number mean: 0.000755334 max: 0.016084
smoothSolver:  Solving for Ux, Initial residual = 0.00148363, Final residual = 7.33137e-06, No Iterations 1
smoothSolver:  Solving for Uy, Initial residual = 0.00248296, Final residual = 4.87439e-06, No Iterations 1
DICPCG:  Solving for p, Initial residual = 0.0243502, Final residual = 0.00108149, No Iterations 45
time step continuity errors : sum local = 8.74374e-11, global = 2.43411e-15, cumulative = 1.83942e-10
DICPCG:  Solving for p, Initial residual = 0.00206942, Final residual = 9.52208e-07, No Iterations 207
time step continuity errors : sum local = 7.67431e-14, global = 1.38517e-15, cumulative = 1.83943e-10
ExecutionTime = 2.13 s  ClockTime = 2 s

Time = 0.18

Courant Number mean: 0.000755245 max: 0.0160908
smoothSolver:  Solving for Ux, Initial residual = 0.00135188, Final residual = 6.65091e-06, No Iterations 1
smoothSolver:  Solving for Uy, Initial residual = 0.00238761, Final residual = 4.67067e-06, No Iterations 1
DICPCG:  Solving for p, Initial residual = 0.0225662, Final residual = 0.000994578, No Iterations 45
time step continuity errors : sum local = 7.96373e-11, global = 2.34422e-15, cumulative = 1.83945e-10
DICPCG:  Solving for p, Initial residual = 0.0019133, Final residual = 9.98346e-07, No Iterations 204
time step continuity errors : sum local = 7.96988e-14, global = 1.87392e-15, cumulative = 1.83947e-10
ExecutionTime = 2.24 s  ClockTime = 2 s

Time = 0.19

Courant Number mean: 0.000755159 max: 0.0160957
smoothSolver:  Solving for Ux, Initial residual = 0.00123993, Final residual = 6.07051e-06, No Iterations 1
smoothSolver:  Solving for Uy, Initial residual = 0.00230032, Final residual = 4.48269e-06, No Iterations 1
DICPCG:  Solving for p, Initial residual = 0.0205169, Final residual = 0.000923425, No Iterations 45
time step continuity errors : sum local = 7.33176e-11, global = 1.81764e-15, cumulative = 1.83949e-10
DICPCG:  Solving for p, Initial residual = 0.00177154, Final residual = 9.84686e-07, No Iterations 203
time step continuity errors : sum local = 7.80128e-14, global = 1.78888e-15, cumulative = 1.83951e-10
ExecutionTime = 2.33 s  ClockTime = 2 s

Time = 0.2

Courant Number mean: 0.000755076 max: 0.0160989
smoothSolver:  Solving for Ux, Initial residual = 0.00114401, Final residual = 5.57206e-06, No Iterations 1
smoothSolver:  Solving for Uy, Initial residual = 0.0022201, Final residual = 4.30861e-06, No Iterations 1
DICPCG:  Solving for p, Initial residual = 0.0190285, Final residual = 0.000854052, No Iterations 45
time step continuity errors : sum local = 6.73398e-11, global = 1.78232e-15, cumulative = 1.83953e-10
DICPCG:  Solving for p, Initial residual = 0.0016514, Final residual = 9.4079e-07, No Iterations 203
time step continuity errors : sum local = 7.40496e-14, global = 1.59812e-15, cumulative = 1.83954e-10
ExecutionTime = 2.44 s  ClockTime = 2 s

Time = 0.21

Courant Number mean: 0.000754996 max: 0.0161002
smoothSolver:  Solving for Ux, Initial residual = 0.00106111, Final residual = 5.13885e-06, No Iterations 1
smoothSolver:  Solving for Uy, Initial residual = 0.00214614, Final residual = 4.1461e-06, No Iterations 1
DICPCG:  Solving for p, Initial residual = 0.017994, Final residual = 0.000811772, No Iterations 45
time step continuity errors : sum local = 6.36353e-11, global = 1.68832e-15, cumulative = 1.83956e-10
DICPCG:  Solving for p, Initial residual = 0.00157352, Final residual = 9.13748e-07, No Iterations 203
time step continuity errors : sum local = 7.15401e-14, global = 1.44582e-15, cumulative = 1.83957e-10
ExecutionTime = 2.54 s  ClockTime = 3 s

Time = 0.22

Courant Number mean: 0.000754918 max: 0.0160997
smoothSolver:  Solving for Ux, Initial residual = 0.000989265, Final residual = 4.76071e-06, No Iterations 1
smoothSolver:  Solving for Uy, Initial residual = 0.00207776, Final residual = 3.99491e-06, No Iterations 1
DICPCG:  Solving for p, Initial residual = 0.0170272, Final residual = 0.000739056, No Iterations 45
time step continuity errors : sum local = 5.76155e-11, global = 1.53103e-15, cumulative = 1.83959e-10
DICPCG:  Solving for p, Initial residual = 0.00147613, Final residual = 9.38616e-07, No Iterations 203
time step continuity errors : sum local = 7.3053e-14, global = 1.24886e-15, cumulative = 1.8396e-10
ExecutionTime = 2.64 s  ClockTime = 3 s

Time = 0.23

Courant Number mean: 0.000754842 max: 0.0160974
smoothSolver:  Solving for Ux, Initial residual = 0.000926121, Final residual = 4.42789e-06, No Iterations 1
smoothSolver:  Solving for Uy, Initial residual = 0.00201428, Final residual = 3.85469e-06, No Iterations 1
DICPCG:  Solving for p, Initial residual = 0.0158297, Final residual = 0.000696903, No Iterations 45
time step continuity errors : sum local = 5.4039e-11, global = 1.44419e-15, cumulative = 1.83962e-10
DICPCG:  Solving for p, Initial residual = 0.00138982, Final residual = 9.68445e-07, No Iterations 202
time step continuity errors : sum local = 7.49984e-14, global = 1.23373e-15, cumulative = 1.83963e-10
ExecutionTime = 2.74 s  ClockTime = 3 s

Time = 0.24

Courant Number mean: 0.000754769 max: 0.0160934
smoothSolver:  Solving for Ux, Initial residual = 0.000870095, Final residual = 4.1324e-06, No Iterations 1
smoothSolver:  Solving for Uy, Initial residual = 0.00195538, Final residual = 3.72433e-06, No Iterations 1
DICPCG:  Solving for p, Initial residual = 0.0149448, Final residual = 0.000655676, No Iterations 45
time step continuity errors : sum local = 5.05985e-11, global = 1.30238e-15, cumulative = 1.83964e-10
DICPCG:  Solving for p, Initial residual = 0.00131673, Final residual = 9.49971e-07, No Iterations 202
time step continuity errors : sum local = 7.3221e-14, global = 1.09209e-15, cumulative = 1.83965e-10
ExecutionTime = 2.84 s  ClockTime = 3 s

Time = 0.25

Courant Number mean: 0.000754698 max: 0.0160877
smoothSolver:  Solving for Ux, Initial residual = 0.000820137, Final residual = 3.86923e-06, No Iterations 1
smoothSolver:  Solving for Uy, Initial residual = 0.00190051, Final residual = 3.6018e-06, No Iterations 1
DICPCG:  Solving for p, Initial residual = 0.0142939, Final residual = 0.000620998, No Iterations 45
time step continuity errors : sum local = 4.77065e-11, global = 1.19918e-15, cumulative = 1.83966e-10
DICPCG:  Solving for p, Initial residual = 0.00126123, Final residual = 9.17155e-07, No Iterations 203
time step continuity errors : sum local = 7.03775e-14, global = 8.99866e-16, cumulative = 1.83967e-10
ExecutionTime = 2.95 s  ClockTime = 3 s

Time = 0.26

Courant Number mean: 0.000754629 max: 0.0160803
smoothSolver:  Solving for Ux, Initial residual = 0.00077539, Final residual = 3.63365e-06, No Iterations 1
smoothSolver:  Solving for Uy, Initial residual = 0.00184923, Final residual = 3.48679e-06, No Iterations 1
DICPCG:  Solving for p, Initial residual = 0.0135184, Final residual = 0.000580793, No Iterations 45
time step continuity errors : sum local = 4.44402e-11, global = 1.1226e-15, cumulative = 1.83969e-10
DICPCG:  Solving for p, Initial residual = 0.0012008, Final residual = 9.54899e-07, No Iterations 202
time step continuity errors : sum local = 7.30073e-14, global = 8.56224e-16, cumulative = 1.83969e-10
ExecutionTime = 3.05 s  ClockTime = 3 s

Time = 0.27

Courant Number mean: 0.000754561 max: 0.0160713
smoothSolver:  Solving for Ux, Initial residual = 0.000735079, Final residual = 3.42231e-06, No Iterations 1
smoothSolver:  Solving for Uy, Initial residual = 0.00180133, Final residual = 3.37908e-06, No Iterations 1
DICPCG:  Solving for p, Initial residual = 0.0128537, Final residual = 0.000637688, No Iterations 44
time step continuity errors : sum local = 4.86361e-11, global = 1.12276e-15, cumulative = 1.8397e-10
DICPCG:  Solving for p, Initial residual = 0.00122562, Final residual = 9.57572e-07, No Iterations 203
time step continuity errors : sum local = 7.29961e-14, global = 6.61423e-16, cumulative = 1.83971e-10
ExecutionTime = 3.15 s  ClockTime = 3 s

Time = 0.28

Courant Number mean: 0.000754496 max: 0.0160607
smoothSolver:  Solving for Ux, Initial residual = 0.000698629, Final residual = 3.23173e-06, No Iterations 1
smoothSolver:  Solving for Uy, Initial residual = 0.00175645, Final residual = 3.27788e-06, No Iterations 1
DICPCG:  Solving for p, Initial residual = 0.0125563, Final residual = 0.000621999, No Iterations 44
time step continuity errors : sum local = 4.73092e-11, global = 1.06904e-15, cumulative = 1.83972e-10
DICPCG:  Solving for p, Initial residual = 0.00121366, Final residual = 9.36704e-07, No Iterations 204
time step continuity errors : sum local = 7.12176e-14, global = 6.55174e-16, cumulative = 1.83973e-10
ExecutionTime = 3.25 s  ClockTime = 3 s

Time = 0.29

Courant Number mean: 0.000754432 max: 0.0160485
smoothSolver:  Solving for Ux, Initial residual = 0.000665503, Final residual = 3.05865e-06, No Iterations 1
smoothSolver:  Solving for Uy, Initial residual = 0.00171425, Final residual = 3.18215e-06, No Iterations 1
DICPCG:  Solving for p, Initial residual = 0.0118577, Final residual = 0.00057479, No Iterations 44
time step continuity errors : sum local = 4.3622e-11, global = 1.09204e-15, cumulative = 1.83974e-10
DICPCG:  Solving for p, Initial residual = 0.00113738, Final residual = 9.70707e-07, No Iterations 202
time step continuity errors : sum local = 7.3665e-14, global = 4.06558e-16, cumulative = 1.83974e-10
ExecutionTime = 3.36 s  ClockTime = 3 s

Time = 0.3

Courant Number mean: 0.00075437 max: 0.0160349
smoothSolver:  Solving for Ux, Initial residual = 0.000635314, Final residual = 2.90112e-06, No Iterations 1
smoothSolver:  Solving for Uy, Initial residual = 0.00167461, Final residual = 3.09236e-06, No Iterations 1
DICPCG:  Solving for p, Initial residual = 0.0113008, Final residual = 0.000540316, No Iterations 44
time step continuity errors : sum local = 4.09207e-11, global = 8.21675e-16, cumulative = 1.83975e-10
DICPCG:  Solving for p, Initial residual = 0.00108792, Final residual = 9.94441e-07, No Iterations 201
time step continuity errors : sum local = 7.52857e-14, global = 2.84985e-16, cumulative = 1.83975e-10
ExecutionTime = 3.45 s  ClockTime = 3 s

Time = 0.31

Courant Number mean: 0.000754309 max: 0.0160199
smoothSolver:  Solving for Ux, Initial residual = 0.000607951, Final residual = 2.75726e-06, No Iterations 1
smoothSolver:  Solving for Uy, Initial residual = 0.00163722, Final residual = 3.00738e-06, No Iterations 1
DICPCG:  Solving for p, Initial residual = 0.0107893, Final residual = 0.000512797, No Iterations 44
time step continuity errors : sum local = 3.87665e-11, global = 8.18654e-16, cumulative = 1.83976e-10
DICPCG:  Solving for p, Initial residual = 0.00104798, Final residual = 9.88237e-07, No Iterations 201
time step continuity errors : sum local = 7.47194e-14, global = 8.80131e-17, cumulative = 1.83976e-10
ExecutionTime = 3.56 s  ClockTime = 4 s

Time = 0.32

Courant Number mean: 0.000754249 max: 0.0160036
smoothSolver:  Solving for Ux, Initial residual = 0.00058294, Final residual = 2.62552e-06, No Iterations 1
smoothSolver:  Solving for Uy, Initial residual = 0.00160178, Final residual = 2.92664e-06, No Iterations 1
DICPCG:  Solving for p, Initial residual = 0.0104717, Final residual = 0.000476652, No Iterations 44
time step continuity errors : sum local = 3.59835e-11, global = 8.09988e-16, cumulative = 1.83977e-10
DICPCG:  Solving for p, Initial residual = 0.00101312, Final residual = 9.5218e-07, No Iterations 200
time step continuity errors : sum local = 7.18761e-14, global = 3.26467e-16, cumulative = 1.83978e-10
ExecutionTime = 3.66 s  ClockTime = 4 s

Time = 0.33

Courant Number mean: 0.000754191 max: 0.0159859
smoothSolver:  Solving for Ux, Initial residual = 0.000559866, Final residual = 2.50425e-06, No Iterations 1
smoothSolver:  Solving for Uy, Initial residual = 0.00156827, Final residual = 2.85007e-06, No Iterations 1
DICPCG:  Solving for p, Initial residual = 0.00969012, Final residual = 0.000459962, No Iterations 44
time step continuity errors : sum local = 3.46758e-11, global = 6.5705e-16, cumulative = 1.83978e-10
DICPCG:  Solving for p, Initial residual = 0.000960178, Final residual = 9.49929e-07, No Iterations 200
time step continuity errors : sum local = 7.16229e-14, global = 4.56492e-17, cumulative = 1.83978e-10
ExecutionTime = 3.76 s  ClockTime = 4 s

Time = 0.34

Courant Number mean: 0.000754134 max: 0.015967
smoothSolver:  Solving for Ux, Initial residual = 0.000538749, Final residual = 2.39254e-06, No Iterations 1
smoothSolver:  Solving for Uy, Initial residual = 0.00153637, Final residual = 2.77725e-06, No Iterations 1
DICPCG:  Solving for p, Initial residual = 0.00955963, Final residual = 0.000460872, No Iterations 44
time step continuity errors : sum local = 3.47035e-11, global = 6.91822e-16, cumulative = 1.83979e-10
DICPCG:  Solving for p, Initial residual = 0.000965503, Final residual = 9.9054e-07, No Iterations 200
time step continuity errors : sum local = 7.45888e-14, global = 6.25376e-17, cumulative = 1.83979e-10
ExecutionTime = 3.86 s  ClockTime = 4 s

Time = 0.35

Courant Number mean: 0.000754078 max: 0.015947
smoothSolver:  Solving for Ux, Initial residual = 0.0005193, Final residual = 2.2893e-06, No Iterations 1
smoothSolver:  Solving for Uy, Initial residual = 0.00150596, Final residual = 2.70776e-06, No Iterations 1
DICPCG:  Solving for p, Initial residual = 0.00905587, Final residual = 0.000426967, No Iterations 44
time step continuity errors : sum local = 3.21156e-11, global = 6.24979e-16, cumulative = 1.8398e-10
DICPCG:  Solving for p, Initial residual = 0.000909922, Final residual = 9.85935e-07, No Iterations 199
time step continuity errors : sum local = 7.41723e-14, global = -9.33752e-17, cumulative = 1.8398e-10
ExecutionTime = 3.96 s  ClockTime = 4 s

Time = 0.36

Courant Number mean: 0.000754024 max: 0.0159258
smoothSolver:  Solving for Ux, Initial residual = 0.000501196, Final residual = 2.1935e-06, No Iterations 1
smoothSolver:  Solving for Uy, Initial residual = 0.00147721, Final residual = 2.64187e-06, No Iterations 1
DICPCG:  Solving for p, Initial residual = 0.00870539, Final residual = 0.000404973, No Iterations 44
time step continuity errors : sum local = 3.04358e-11, global = 6.74508e-16, cumulative = 1.8398e-10
DICPCG:  Solving for p, Initial residual = 0.000874868, Final residual = 8.97487e-07, No Iterations 200
time step continuity errors : sum local = 6.74653e-14, global = -1.94073e-16, cumulative = 1.8398e-10
ExecutionTime = 4.06 s  ClockTime = 4 s

Time = 0.37

Courant Number mean: 0.00075397 max: 0.0159035
smoothSolver:  Solving for Ux, Initial residual = 0.000484339, Final residual = 2.10452e-06, No Iterations 1
smoothSolver:  Solving for Uy, Initial residual = 0.00144997, Final residual = 2.57874e-06, No Iterations 1
DICPCG:  Solving for p, Initial residual = 0.00839591, Final residual = 0.000387683, No Iterations 44
time step continuity errors : sum local = 2.91254e-11, global = 5.5064e-16, cumulative = 1.83981e-10
DICPCG:  Solving for p, Initial residual = 0.00084977, Final residual = 9.97691e-07, No Iterations 199
time step continuity errors : sum local = 7.49928e-14, global = -3.68893e-16, cumulative = 1.8398e-10
ExecutionTime = 4.16 s  ClockTime = 4 s

Time = 0.38

Courant Number mean: 0.000753918 max: 0.0158803
smoothSolver:  Solving for Ux, Initial residual = 0.000468624, Final residual = 2.02159e-06, No Iterations 1
smoothSolver:  Solving for Uy, Initial residual = 0.00142389, Final residual = 2.51827e-06, No Iterations 1
DICPCG:  Solving for p, Initial residual = 0.00832535, Final residual = 0.000406539, No Iterations 41
time step continuity errors : sum local = 3.05205e-11, global = 5.66912e-16, cumulative = 1.83981e-10
DICPCG:  Solving for p, Initial residual = 0.000857605, Final residual = 9.80431e-07, No Iterations 200
time step continuity errors : sum local = 7.35923e-14, global = -2.88785e-16, cumulative = 1.8398e-10
ExecutionTime = 4.26 s  ClockTime = 4 s

Time = 0.39

Courant Number mean: 0.000753866 max: 0.0158561
smoothSolver:  Solving for Ux, Initial residual = 0.000453881, Final residual = 1.94426e-06, No Iterations 1
smoothSolver:  Solving for Uy, Initial residual = 0.00139903, Final residual = 2.46162e-06, No Iterations 1
DICPCG:  Solving for p, Initial residual = 0.00792817, Final residual = 0.000388073, No Iterations 41
time step continuity errors : sum local = 2.90995e-11, global = 5.86063e-16, cumulative = 1.83981e-10
DICPCG:  Solving for p, Initial residual = 0.000829099, Final residual = 9.63727e-07, No Iterations 200
time step continuity errors : sum local = 7.22667e-14, global = -2.90283e-16, cumulative = 1.83981e-10
ExecutionTime = 4.36 s  ClockTime = 4 s

Time = 0.4

Courant Number mean: 0.000753816 max: 0.015831
smoothSolver:  Solving for Ux, Initial residual = 0.000440075, Final residual = 1.87185e-06, No Iterations 1
smoothSolver:  Solving for Uy, Initial residual = 0.00137539, Final residual = 2.40702e-06, No Iterations 1
DICPCG:  Solving for p, Initial residual = 0.0073484, Final residual = 0.00034391, No Iterations 44
time step continuity errors : sum local = 2.57669e-11, global = 5.56174e-16, cumulative = 1.83981e-10
DICPCG:  Solving for p, Initial residual = 0.000766936, Final residual = 9.03422e-07, No Iterations 199
time step continuity errors : sum local = 6.76963e-14, global = -2.76075e-16, cumulative = 1.83981e-10
ExecutionTime = 4.46 s  ClockTime = 4 s

Time = 0.41

Courant Number mean: 0.000753766 max: 0.0158051
smoothSolver:  Solving for Ux, Initial residual = 0.000427142, Final residual = 1.80418e-06, No Iterations 1
smoothSolver:  Solving for Uy, Initial residual = 0.00135255, Final residual = 2.3538e-06, No Iterations 1
DICPCG:  Solving for p, Initial residual = 0.00711796, Final residual = 0.000329017, No Iterations 44
time step continuity errors : sum local = 2.46316e-11, global = 5.21622e-16, cumulative = 1.83982e-10
DICPCG:  Solving for p, Initial residual = 0.000749186, Final residual = 8.71481e-07, No Iterations 199
time step continuity errors : sum local = 6.52453e-14, global = -2.81689e-16, cumulative = 1.83981e-10
ExecutionTime = 4.57 s  ClockTime = 5 s

Time = 0.42

Courant Number mean: 0.000753717 max: 0.0157784
smoothSolver:  Solving for Ux, Initial residual = 0.000414979, Final residual = 1.7407e-06, No Iterations 1
smoothSolver:  Solving for Uy, Initial residual = 0.0013307, Final residual = 2.30315e-06, No Iterations 1
DICPCG:  Solving for p, Initial residual = 0.00675509, Final residual = 0.000312732, No Iterations 44
time step continuity errors : sum local = 2.33947e-11, global = 4.256e-16, cumulative = 1.83982e-10
DICPCG:  Solving for p, Initial residual = 0.000720341, Final residual = 8.40563e-07, No Iterations 199
time step continuity errors : sum local = 6.2888e-14, global = -2.68714e-16, cumulative = 1.83981e-10
ExecutionTime = 4.67 s  ClockTime = 5 s

Time = 0.43

Courant Number mean: 0.000753669 max: 0.015751
smoothSolver:  Solving for Ux, Initial residual = 0.000403514, Final residual = 1.68105e-06, No Iterations 1
smoothSolver:  Solving for Uy, Initial residual = 0.00130978, Final residual = 2.25447e-06, No Iterations 1
DICPCG:  Solving for p, Initial residual = 0.00656648, Final residual = 0.00030229, No Iterations 44
time step continuity errors : sum local = 2.25998e-11, global = 4.03315e-16, cumulative = 1.83982e-10
DICPCG:  Solving for p, Initial residual = 0.000703155, Final residual = 9.87551e-07, No Iterations 198
time step continuity errors : sum local = 7.38422e-14, global = -4.52957e-16, cumulative = 1.83981e-10
ExecutionTime = 4.76 s  ClockTime = 5 s

Time = 0.44

Courant Number mean: 0.000753622 max: 0.0157228
smoothSolver:  Solving for Ux, Initial residual = 0.000392689, Final residual = 1.62487e-06, No Iterations 1
smoothSolver:  Solving for Uy, Initial residual = 0.00128969, Final residual = 2.20783e-06, No Iterations 1
DICPCG:  Solving for p, Initial residual = 0.00644541, Final residual = 0.000294232, No Iterations 44
time step continuity errors : sum local = 2.19885e-11, global = 3.7994e-16, cumulative = 1.83982e-10
DICPCG:  Solving for p, Initial residual = 0.000692069, Final residual = 9.70191e-07, No Iterations 198
time step continuity errors : sum local = 7.25252e-14, global = -4.83309e-16, cumulative = 1.83981e-10
ExecutionTime = 4.87 s  ClockTime = 5 s

Time = 0.45

Courant Number mean: 0.000753576 max: 0.015694
smoothSolver:  Solving for Ux, Initial residual = 0.000382448, Final residual = 1.5719e-06, No Iterations 1
smoothSolver:  Solving for Uy, Initial residual = 0.00127039, Final residual = 2.16353e-06, No Iterations 1
DICPCG:  Solving for p, Initial residual = 0.00645453, Final residual = 0.000285247, No Iterations 44
time step continuity errors : sum local = 2.13136e-11, global = 3.5812e-16, cumulative = 1.83982e-10
DICPCG:  Solving for p, Initial residual = 0.000696675, Final residual = 8.25035e-07, No Iterations 199
time step continuity errors : sum local = 6.16684e-14, global = -4.905e-16, cumulative = 1.83981e-10
ExecutionTime = 4.97 s  ClockTime = 5 s

Time = 0.46

Courant Number mean: 0.00075353 max: 0.0156647
smoothSolver:  Solving for Ux, Initial residual = 0.000372761, Final residual = 1.52196e-06, No Iterations 1
smoothSolver:  Solving for Uy, Initial residual = 0.00125169, Final residual = 2.12034e-06, No Iterations 1
DICPCG:  Solving for p, Initial residual = 0.00641993, Final residual = 0.000319237, No Iterations 42
time step continuity errors : sum local = 2.38342e-11, global = 5.13639e-16, cumulative = 1.83982e-10
DICPCG:  Solving for p, Initial residual = 0.000706935, Final residual = 8.87214e-07, No Iterations 199
time step continuity errors : sum local = 6.62149e-14, global = -6.57095e-16, cumulative = 1.83981e-10
ExecutionTime = 5.06 s  ClockTime = 5 s

Time = 0.47

Courant Number mean: 0.000753485 max: 0.0156347
smoothSolver:  Solving for Ux, Initial residual = 0.000363541, Final residual = 1.4748e-06, No Iterations 1
smoothSolver:  Solving for Uy, Initial residual = 0.00123372, Final residual = 2.07923e-06, No Iterations 1
DICPCG:  Solving for p, Initial residual = 0.00598695, Final residual = 0.000285223, No Iterations 41
time step continuity errors : sum local = 2.12673e-11, global = 4.51989e-16, cumulative = 1.83981e-10
DICPCG:  Solving for p, Initial residual = 0.000659819, Final residual = 9.40308e-07, No Iterations 198
time step continuity errors : sum local = 7.01031e-14, global = -9.7829e-16, cumulative = 1.8398e-10
ExecutionTime = 5.16 s  ClockTime = 5 s

Time = 0.48

Courant Number mean: 0.000753441 max: 0.0156043
smoothSolver:  Solving for Ux, Initial residual = 0.000354801, Final residual = 1.43003e-06, No Iterations 1
smoothSolver:  Solving for Uy, Initial residual = 0.00121646, Final residual = 2.03948e-06, No Iterations 1
DICPCG:  Solving for p, Initial residual = 0.00563028, Final residual = 0.0002665, No Iterations 44
time step continuity errors : sum local = 1.98578e-11, global = 3.25586e-16, cumulative = 1.83981e-10
DICPCG:  Solving for p, Initial residual = 0.000631732, Final residual = 8.61743e-07, No Iterations 198
time step continuity errors : sum local = 6.42218e-14, global = -5.97776e-16, cumulative = 1.8398e-10
ExecutionTime = 5.26 s  ClockTime = 5 s

Time = 0.49

Courant Number mean: 0.000753397 max: 0.0155733
smoothSolver:  Solving for Ux, Initial residual = 0.000346506, Final residual = 1.38763e-06, No Iterations 1
smoothSolver:  Solving for Uy, Initial residual = 0.00119976, Final residual = 2.00106e-06, No Iterations 1
DICPCG:  Solving for p, Initial residual = 0.00554288, Final residual = 0.000250648, No Iterations 44
time step continuity errors : sum local = 1.86639e-11, global = 3.7266e-16, cumulative = 1.83981e-10
DICPCG:  Solving for p, Initial residual = 0.000618858, Final residual = 9.4832e-07, No Iterations 197
time step continuity errors : sum local = 7.06033e-14, global = -6.41262e-16, cumulative = 1.8398e-10
ExecutionTime = 5.36 s  ClockTime = 5 s

Time = 0.5

Courant Number mean: 0.000753354 max: 0.0155419
smoothSolver:  Solving for Ux, Initial residual = 0.000338592, Final residual = 1.34731e-06, No Iterations 1
smoothSolver:  Solving for Uy, Initial residual = 0.00118385, Final residual = 1.96429e-06, No Iterations 1
DICPCG:  Solving for p, Initial residual = 0.00524051, Final residual = 0.000239794, No Iterations 44
time step continuity errors : sum local = 1.78394e-11, global = 1.95295e-16, cumulative = 1.8398e-10
DICPCG:  Solving for p, Initial residual = 0.000589738, Final residual = 9.3935e-07, No Iterations 197
time step continuity errors : sum local = 6.98784e-14, global = -6.55138e-16, cumulative = 1.83979e-10
ExecutionTime = 5.47 s  ClockTime = 5 s

Time = 0.51

Courant Number mean: 0.000753311 max: 0.0155102
smoothSolver:  Solving for Ux, Initial residual = 0.000331052, Final residual = 1.30904e-06, No Iterations 1
smoothSolver:  Solving for Uy, Initial residual = 0.0011684, Final residual = 1.92872e-06, No Iterations 1
DICPCG:  Solving for p, Initial residual = 0.00509962, Final residual = 0.000233212, No Iterations 44
time step continuity errors : sum local = 1.73353e-11, global = 2.30358e-16, cumulative = 1.8398e-10
DICPCG:  Solving for p, Initial residual = 0.00057787, Final residual = 9.12991e-07, No Iterations 197
time step continuity errors : sum local = 6.78564e-14, global = -6.77839e-16, cumulative = 1.83979e-10
ExecutionTime = 5.57 s  ClockTime = 6 s

Time = 0.52

Courant Number mean: 0.000753269 max: 0.015478
smoothSolver:  Solving for Ux, Initial residual = 0.000323851, Final residual = 1.27262e-06, No Iterations 1
smoothSolver:  Solving for Uy, Initial residual = 0.00115346, Final residual = 1.8944e-06, No Iterations 1
DICPCG:  Solving for p, Initial residual = 0.00486581, Final residual = 0.000224797, No Iterations 44
time step continuity errors : sum local = 1.66963e-11, global = 2.11997e-16, cumulative = 1.83979e-10
DICPCG:  Solving for p, Initial residual = 0.000560547, Final residual = 9.97389e-07, No Iterations 182
time step continuity errors : sum local = 7.40752e-14, global = -6.00223e-16, cumulative = 1.83979e-10
ExecutionTime = 5.66 s  ClockTime = 6 s

Time = 0.53

Courant Number mean: 0.000753228 max: 0.0154455
smoothSolver:  Solving for Ux, Initial residual = 0.000316974, Final residual = 1.23795e-06, No Iterations 1
smoothSolver:  Solving for Uy, Initial residual = 0.00113898, Final residual = 1.8613e-06, No Iterations 1
DICPCG:  Solving for p, Initial residual = 0.00472784, Final residual = 0.000218405, No Iterations 44
time step continuity errors : sum local = 1.62092e-11, global = 4.43224e-16, cumulative = 1.83979e-10
DICPCG:  Solving for p, Initial residual = 0.000548171, Final residual = 9.96704e-07, No Iterations 175
time step continuity errors : sum local = 7.39644e-14, global = -7.97032e-16, cumulative = 1.83978e-10
ExecutionTime = 5.75 s  ClockTime = 6 s

Time = 0.54

Courant Number mean: 0.000753187 max: 0.0154127
smoothSolver:  Solving for Ux, Initial residual = 0.000310394, Final residual = 1.20492e-06, No Iterations 1
smoothSolver:  Solving for Uy, Initial residual = 0.00112495, Final residual = 1.82939e-06, No Iterations 1
DICPCG:  Solving for p, Initial residual = 0.00459905, Final residual = 0.00021215, No Iterations 44
time step continuity errors : sum local = 1.57317e-11, global = 3.65396e-16, cumulative = 1.83979e-10
DICPCG:  Solving for p, Initial residual = 0.000536226, Final residual = 9.37975e-07, No Iterations 175
time step continuity errors : sum local = 6.95441e-14, global = -7.5332e-16, cumulative = 1.83978e-10
ExecutionTime = 5.85 s  ClockTime = 6 s

Time = 0.55

Courant Number mean: 0.000753147 max: 0.0153796
smoothSolver:  Solving for Ux, Initial residual = 0.000304093, Final residual = 1.17345e-06, No Iterations 1
smoothSolver:  Solving for Uy, Initial residual = 0.00111137, Final residual = 1.79859e-06, No Iterations 1
DICPCG:  Solving for p, Initial residual = 0.00448015, Final residual = 0.000206305, No Iterations 44
time step continuity errors : sum local = 1.52846e-11, global = 3.19583e-16, cumulative = 1.83978e-10
DICPCG:  Solving for p, Initial residual = 0.000524885, Final residual = 9.75224e-07, No Iterations 174
time step continuity errors : sum local = 7.22397e-14, global = -1.0169e-15, cumulative = 1.83977e-10
ExecutionTime = 5.95 s  ClockTime = 6 s

Time = 0.56

Courant Number mean: 0.000753107 max: 0.0153463
smoothSolver:  Solving for Ux, Initial residual = 0.000298057, Final residual = 1.14338e-06, No Iterations 1
smoothSolver:  Solving for Uy, Initial residual = 0.00109819, Final residual = 1.76903e-06, No Iterations 1
DICPCG:  Solving for p, Initial residual = 0.00437181, Final residual = 0.000200643, No Iterations 44
time step continuity errors : sum local = 1.48515e-11, global = 3.60325e-16, cumulative = 1.83978e-10
DICPCG:  Solving for p, Initial residual = 0.000514028, Final residual = 9.3747e-07, No Iterations 174
time step continuity errors : sum local = 6.93778e-14, global = -9.86408e-16, cumulative = 1.83977e-10
ExecutionTime = 6.04 s  ClockTime = 6 s

Time = 0.57

Courant Number mean: 0.000753068 max: 0.0153128
smoothSolver:  Solving for Ux, Initial residual = 0.000292266, Final residual = 1.11463e-06, No Iterations 1
smoothSolver:  Solving for Uy, Initial residual = 0.00108541, Final residual = 1.74053e-06, No Iterations 1
DICPCG:  Solving for p, Initial residual = 0.00429335, Final residual = 0.000195592, No Iterations 44
time step continuity errors : sum local = 1.44643e-11, global = 3.29123e-16, cumulative = 1.83977e-10
DICPCG:  Solving for p, Initial residual = 0.000504908, Final residual = 9.24686e-07, No Iterations 174
time step continuity errors : sum local = 6.83695e-14, global = -9.00124e-16, cumulative = 1.83976e-10
ExecutionTime = 6.13 s  ClockTime = 6 s

Time = 0.58

Courant Number mean: 0.000753029 max: 0.015279
smoothSolver:  Solving for Ux, Initial residual = 0.000286707, Final residual = 1.08714e-06, No Iterations 1
smoothSolver:  Solving for Uy, Initial residual = 0.00107301, Final residual = 1.71288e-06, No Iterations 1
DICPCG:  Solving for p, Initial residual = 0.00415946, Final residual = 0.000190418, No Iterations 44
time step continuity errors : sum local = 1.40686e-11, global = 3.15407e-16, cumulative = 1.83976e-10
DICPCG:  Solving for p, Initial residual = 0.000493552, Final residual = 8.65667e-07, No Iterations 174
time step continuity errors : sum local = 6.39432e-14, global = -8.3543e-16, cumulative = 1.83975e-10
ExecutionTime = 6.22 s  ClockTime = 6 s

Time = 0.59

Courant Number mean: 0.00075299 max: 0.0152451
smoothSolver:  Solving for Ux, Initial residual = 0.000281362, Final residual = 1.06082e-06, No Iterations 1
smoothSolver:  Solving for Uy, Initial residual = 0.00106097, Final residual = 1.68599e-06, No Iterations 1
DICPCG:  Solving for p, Initial residual = 0.00413855, Final residual = 0.000202761, No Iterations 43
time step continuity errors : sum local = 1.49641e-11, global = 3.78853e-16, cumulative = 1.83976e-10
DICPCG:  Solving for p, Initial residual = 0.000495162, Final residual = 9.89207e-07, No Iterations 174
time step continuity errors : sum local = 7.29794e-14, global = -8.71846e-16, cumulative = 1.83975e-10
ExecutionTime = 6.31 s  ClockTime = 6 s

Time = 0.6

Courant Number mean: 0.000752952 max: 0.015211
smoothSolver:  Solving for Ux, Initial residual = 0.000276214, Final residual = 1.03558e-06, No Iterations 1
smoothSolver:  Solving for Uy, Initial residual = 0.00104929, Final residual = 1.65982e-06, No Iterations 1
DICPCG:  Solving for p, Initial residual = 0.00396334, Final residual = 0.000182108, No Iterations 44
time step continuity errors : sum local = 1.34238e-11, global = 3.6209e-16, cumulative = 1.83975e-10
DICPCG:  Solving for p, Initial residual = 0.000474302, Final residual = 9.53249e-07, No Iterations 173
time step continuity errors : sum local = 7.0244e-14, global = -9.34429e-16, cumulative = 1.83974e-10
ExecutionTime = 6.4 s  ClockTime = 6 s

Time = 0.61

Courant Number mean: 0.000752915 max: 0.0151768
smoothSolver:  Solving for Ux, Initial residual = 0.000271265, Final residual = 1.01142e-06, No Iterations 1
smoothSolver:  Solving for Uy, Initial residual = 0.00103791, Final residual = 1.63435e-06, No Iterations 1
DICPCG:  Solving for p, Initial residual = 0.00386735, Final residual = 0.000177632, No Iterations 44
time step continuity errors : sum local = 1.30786e-11, global = 3.46523e-16, cumulative = 1.83975e-10
DICPCG:  Solving for p, Initial residual = 0.000465955, Final residual = 9.36089e-07, No Iterations 173
time step continuity errors : sum local = 6.88975e-14, global = -8.38847e-16, cumulative = 1.83974e-10
ExecutionTime = 6.5 s  ClockTime = 6 s

Time = 0.62

Courant Number mean: 0.000752877 max: 0.0151424
smoothSolver:  Solving for Ux, Initial residual = 0.000266503, Final residual = 9.88242e-07, No Iterations 1
smoothSolver:  Solving for Uy, Initial residual = 0.00102687, Final residual = 1.60964e-06, No Iterations 1
DICPCG:  Solving for p, Initial residual = 0.00381997, Final residual = 0.000175134, No Iterations 44
time step continuity errors : sum local = 1.28798e-11, global = 3.38181e-16, cumulative = 1.83974e-10
DICPCG:  Solving for p, Initial residual = 0.000460449, Final residual = 9.2321e-07, No Iterations 173
time step continuity errors : sum local = 6.78733e-14, global = -7.95463e-16, cumulative = 1.83973e-10
ExecutionTime = 6.59 s  ClockTime = 7 s

Time = 0.63

Courant Number mean: 0.000752841 max: 0.015108
smoothSolver:  Solving for Ux, Initial residual = 0.000261915, Final residual = 9.66004e-07, No Iterations 1
smoothSolver:  Solving for Uy, Initial residual = 0.00101611, Final residual = 1.58559e-06, No Iterations 1
DICPCG:  Solving for p, Initial residual = 0.00378012, Final residual = 0.000187524, No Iterations 41
time step continuity errors : sum local = 1.3774e-11, global = 3.66443e-16, cumulative = 1.83974e-10
DICPCG:  Solving for p, Initial residual = 0.000470426, Final residual = 8.52972e-07, No Iterations 197
time step continuity errors : sum local = 6.26246e-14, global = -1.03859e-15, cumulative = 1.83973e-10
ExecutionTime = 6.68 s  ClockTime = 7 s

Time = 0.64

Courant Number mean: 0.000752804 max: 0.0150735
smoothSolver:  Solving for Ux, Initial residual = 0.000257481, Final residual = 9.44608e-07, No Iterations 1
smoothSolver:  Solving for Uy, Initial residual = 0.00100567, Final residual = 1.56253e-06, No Iterations 1
DICPCG:  Solving for p, Initial residual = 0.00365817, Final residual = 0.0001828, No Iterations 41
time step continuity errors : sum local = 1.34097e-11, global = 7.40177e-17, cumulative = 1.83973e-10
DICPCG:  Solving for p, Initial residual = 0.000457266, Final residual = 9.89787e-07, No Iterations 196
time step continuity errors : sum local = 7.25791e-14, global = -1.4371e-15, cumulative = 1.83971e-10
ExecutionTime = 6.79 s  ClockTime = 7 s

Time = 0.65

Courant Number mean: 0.000752768 max: 0.015039
smoothSolver:  Solving for Ux, Initial residual = 0.000253217, Final residual = 9.24082e-07, No Iterations 1
smoothSolver:  Solving for Uy, Initial residual = 0.0009955, Final residual = 1.53994e-06, No Iterations 1
DICPCG:  Solving for p, Initial residual = 0.00357934, Final residual = 0.00016331, No Iterations 44
time step continuity errors : sum local = 1.19648e-11, global = 1.42559e-16, cumulative = 1.83972e-10
DICPCG:  Solving for p, Initial residual = 0.000435667, Final residual = 8.61669e-07, No Iterations 173
time step continuity errors : sum local = 6.3103e-14, global = -4.67929e-16, cumulative = 1.83971e-10
ExecutionTime = 6.88 s  ClockTime = 7 s

Time = 0.66

Courant Number mean: 0.000752733 max: 0.0150044
smoothSolver:  Solving for Ux, Initial residual = 0.000249102, Final residual = 9.04335e-07, No Iterations 1
smoothSolver:  Solving for Uy, Initial residual = 0.000985607, Final residual = 1.51798e-06, No Iterations 1
DICPCG:  Solving for p, Initial residual = 0.00355441, Final residual = 0.000170455, No Iterations 41
time step continuity errors : sum local = 1.24708e-11, global = 5.75706e-16, cumulative = 1.83972e-10
DICPCG:  Solving for p, Initial residual = 0.000440569, Final residual = 9.07074e-07, No Iterations 196
time step continuity errors : sum local = 6.63277e-14, global = -1.24508e-15, cumulative = 1.8397e-10
ExecutionTime = 6.97 s  ClockTime = 7 s

Time = 0.67

Courant Number mean: 0.000752698 max: 0.0149697
smoothSolver:  Solving for Ux, Initial residual = 0.000245114, Final residual = 8.85301e-07, No Iterations 1
smoothSolver:  Solving for Uy, Initial residual = 0.000975975, Final residual = 1.49668e-06, No Iterations 1
DICPCG:  Solving for p, Initial residual = 0.00339616, Final residual = 0.000155306, No Iterations 44
time step continuity errors : sum local = 1.13464e-11, global = -1.4733e-16, cumulative = 1.8397e-10
DICPCG:  Solving for p, Initial residual = 0.000419647, Final residual = 9.8626e-07, No Iterations 172
time step continuity errors : sum local = 7.20211e-14, global = -4.30617e-16, cumulative = 1.8397e-10
ExecutionTime = 7.07 s  ClockTime = 7 s

Time = 0.68

Courant Number mean: 0.000752663 max: 0.0149351
smoothSolver:  Solving for Ux, Initial residual = 0.000241266, Final residual = 8.67e-07, No Iterations 1
smoothSolver:  Solving for Uy, Initial residual = 0.000966565, Final residual = 1.47579e-06, No Iterations 1
DICPCG:  Solving for p, Initial residual = 0.00334438, Final residual = 0.000166424, No Iterations 41
time step continuity errors : sum local = 1.21423e-11, global = 6.94679e-16, cumulative = 1.83971e-10
DICPCG:  Solving for p, Initial residual = 0.000427029, Final residual = 8.98721e-07, No Iterations 196
time step continuity errors : sum local = 6.55399e-14, global = -1.29091e-15, cumulative = 1.83969e-10
ExecutionTime = 7.17 s  ClockTime = 7 s

Time = 0.69

Courant Number mean: 0.000752628 max: 0.0149005
smoothSolver:  Solving for Ux, Initial residual = 0.000237544, Final residual = 8.49373e-07, No Iterations 1
smoothSolver:  Solving for Uy, Initial residual = 0.000957391, Final residual = 1.45543e-06, No Iterations 1
DICPCG:  Solving for p, Initial residual = 0.00330847, Final residual = 0.000163349, No Iterations 41
time step continuity errors : sum local = 1.19024e-11, global = -8.58328e-17, cumulative = 1.83969e-10
DICPCG:  Solving for p, Initial residual = 0.000423556, Final residual = 8.62974e-07, No Iterations 196
time step continuity errors : sum local = 6.28538e-14, global = -1.25652e-15, cumulative = 1.83968e-10
ExecutionTime = 7.27 s  ClockTime = 7 s

Time = 0.7

Courant Number mean: 0.000752594 max: 0.0148658
smoothSolver:  Solving for Ux, Initial residual = 0.000233944, Final residual = 8.3239e-07, No Iterations 1
smoothSolver:  Solving for Uy, Initial residual = 0.000948426, Final residual = 1.4356e-06, No Iterations 1
DICPCG:  Solving for p, Initial residual = 0.00329536, Final residual = 0.000163281, No Iterations 41
time step continuity errors : sum local = 1.18807e-11, global = 1.66216e-16, cumulative = 1.83968e-10
DICPCG:  Solving for p, Initial residual = 0.000424005, Final residual = 9.65277e-07, No Iterations 196
time step continuity errors : sum local = 7.01947e-14, global = -1.27616e-15, cumulative = 1.83967e-10
ExecutionTime = 7.36 s  ClockTime = 7 s

Time = 0.71

Courant Number mean: 0.00075256 max: 0.0148312
smoothSolver:  Solving for Ux, Initial residual = 0.000230461, Final residual = 8.16008e-07, No Iterations 1
smoothSolver:  Solving for Uy, Initial residual = 0.000939636, Final residual = 1.41601e-06, No Iterations 1
DICPCG:  Solving for p, Initial residual = 0.00312898, Final residual = 0.000155244, No Iterations 41
time step continuity errors : sum local = 1.12799e-11, global = 1.65259e-16, cumulative = 1.83967e-10
DICPCG:  Solving for p, Initial residual = 0.000404218, Final residual = 9.82279e-07, No Iterations 195
time step continuity errors : sum local = 7.13383e-14, global = -1.47416e-15, cumulative = 1.83965e-10
ExecutionTime = 7.46 s  ClockTime = 7 s

Time = 0.72

Courant Number mean: 0.000752527 max: 0.0147967
smoothSolver:  Solving for Ux, Initial residual = 0.000227082, Final residual = 8.00189e-07, No Iterations 1
smoothSolver:  Solving for Uy, Initial residual = 0.00093107, Final residual = 1.39702e-06, No Iterations 1
DICPCG:  Solving for p, Initial residual = 0.00310184, Final residual = 0.000151923, No Iterations 41
time step continuity errors : sum local = 1.10246e-11, global = 1.09109e-16, cumulative = 1.83966e-10
DICPCG:  Solving for p, Initial residual = 0.000399727, Final residual = 9.40008e-07, No Iterations 195
time step continuity errors : sum local = 6.81843e-14, global = -1.39088e-15, cumulative = 1.83964e-10
ExecutionTime = 7.56 s  ClockTime = 8 s

Time = 0.73

Courant Number mean: 0.000752493 max: 0.0147621
smoothSolver:  Solving for Ux, Initial residual = 0.000223807, Final residual = 7.84916e-07, No Iterations 1
smoothSolver:  Solving for Uy, Initial residual = 0.000922708, Final residual = 1.37854e-06, No Iterations 1
DICPCG:  Solving for p, Initial residual = 0.00303853, Final residual = 0.000139827, No Iterations 44
time step continuity errors : sum local = 1.01333e-11, global = 9.70275e-17, cumulative = 1.83964e-10
DICPCG:  Solving for p, Initial residual = 0.000386988, Final residual = 9.36219e-07, No Iterations 172
time step continuity errors : sum local = 6.78106e-14, global = -2.41919e-17, cumulative = 1.83964e-10
ExecutionTime = 7.65 s  ClockTime = 8 s

Time = 0.74

Courant Number mean: 0.00075246 max: 0.0147277
smoothSolver:  Solving for Ux, Initial residual = 0.000220629, Final residual = 7.7012e-07, No Iterations 1
smoothSolver:  Solving for Uy, Initial residual = 0.000914506, Final residual = 1.36049e-06, No Iterations 1
DICPCG:  Solving for p, Initial residual = 0.0029869, Final residual = 0.000149238, No Iterations 41
time step continuity errors : sum local = 1.07992e-11, global = 7.46195e-16, cumulative = 1.83965e-10
DICPCG:  Solving for p, Initial residual = 0.000390837, Final residual = 9.39074e-07, No Iterations 195
time step continuity errors : sum local = 6.79149e-14, global = -1.42229e-15, cumulative = 1.83964e-10
ExecutionTime = 7.75 s  ClockTime = 8 s

Time = 0.75

Courant Number mean: 0.000752428 max: 0.0146933
smoothSolver:  Solving for Ux, Initial residual = 0.000217544, Final residual = 7.55813e-07, No Iterations 1
smoothSolver:  Solving for Uy, Initial residual = 0.000906492, Final residual = 1.34288e-06, No Iterations 1
DICPCG:  Solving for p, Initial residual = 0.00288385, Final residual = 0.000143408, No Iterations 41
time step continuity errors : sum local = 1.03622e-11, global = -2.01093e-16, cumulative = 1.83963e-10
DICPCG:  Solving for p, Initial residual = 0.000380472, Final residual = 9.63762e-07, No Iterations 175
time step continuity errors : sum local = 6.96005e-14, global = -3.5957e-16, cumulative = 1.83963e-10
ExecutionTime = 7.84 s  ClockTime = 8 s

Time = 0.76

Courant Number mean: 0.000752395 max: 0.0146589
smoothSolver:  Solving for Ux, Initial residual = 0.000214551, Final residual = 7.41996e-07, No Iterations 1
smoothSolver:  Solving for Uy, Initial residual = 0.000898661, Final residual = 1.32564e-06, No Iterations 1
DICPCG:  Solving for p, Initial residual = 0.00283225, Final residual = 0.000140753, No Iterations 41
time step continuity errors : sum local = 1.01558e-11, global = 2.98199e-16, cumulative = 1.83963e-10
DICPCG:  Solving for p, Initial residual = 0.000375009, Final residual = 9.42228e-07, No Iterations 175
time step continuity errors : sum local = 6.79468e-14, global = -3.506e-16, cumulative = 1.83963e-10
ExecutionTime = 7.94 s  ClockTime = 8 s

Time = 0.77

Courant Number mean: 0.000752363 max: 0.0146247
smoothSolver:  Solving for Ux, Initial residual = 0.000211642, Final residual = 7.28628e-07, No Iterations 1
smoothSolver:  Solving for Uy, Initial residual = 0.000890993, Final residual = 1.30878e-06, No Iterations 1
DICPCG:  Solving for p, Initial residual = 0.00278193, Final residual = 0.000138043, No Iterations 41
time step continuity errors : sum local = 9.94564e-12, global = 1.96416e-16, cumulative = 1.83963e-10
DICPCG:  Solving for p, Initial residual = 0.000369588, Final residual = 9.96181e-07, No Iterations 173
time step continuity errors : sum local = 7.17312e-14, global = -7.86184e-16, cumulative = 1.83962e-10
ExecutionTime = 8.03 s  ClockTime = 8 s

Time = 0.78

Courant Number mean: 0.000752332 max: 0.0145905
smoothSolver:  Solving for Ux, Initial residual = 0.00020882, Final residual = 7.15687e-07, No Iterations 1
smoothSolver:  Solving for Uy, Initial residual = 0.0008835, Final residual = 1.29235e-06, No Iterations 1
DICPCG:  Solving for p, Initial residual = 0.0027336, Final residual = 0.000135535, No Iterations 41
time step continuity errors : sum local = 9.75044e-12, global = 4.47948e-16, cumulative = 1.83963e-10
DICPCG:  Solving for p, Initial residual = 0.000364411, Final residual = 9.56752e-07, No Iterations 173
time step continuity errors : sum local = 6.87885e-14, global = -7.71528e-16, cumulative = 1.83962e-10
ExecutionTime = 8.11 s  ClockTime = 8 s

Time = 0.79

Courant Number mean: 0.0007523 max: 0.0145565
smoothSolver:  Solving for Ux, Initial residual = 0.000206075, Final residual = 7.03165e-07, No Iterations 1
smoothSolver:  Solving for Uy, Initial residual = 0.000876174, Final residual = 1.27629e-06, No Iterations 1
DICPCG:  Solving for p, Initial residual = 0.00268645, Final residual = 0.000133112, No Iterations 41
time step continuity errors : sum local = 9.56171e-12, global = 3.07175e-16, cumulative = 1.83962e-10
DICPCG:  Solving for p, Initial residual = 0.000359382, Final residual = 9.37699e-07, No Iterations 173
time step continuity errors : sum local = 6.73165e-14, global = -7.49378e-16, cumulative = 1.83962e-10
ExecutionTime = 8.21 s  ClockTime = 8 s

Time = 0.8

Courant Number mean: 0.000752269 max: 0.0145225
smoothSolver:  Solving for Ux, Initial residual = 0.000203406, Final residual = 6.91043e-07, No Iterations 1
smoothSolver:  Solving for Uy, Initial residual = 0.000868999, Final residual = 1.26058e-06, No Iterations 1
DICPCG:  Solving for p, Initial residual = 0.002646, Final residual = 0.000130948, No Iterations 41
time step continuity errors : sum local = 9.39212e-12, global = 2.90584e-16, cumulative = 1.83962e-10
DICPCG:  Solving for p, Initial residual = 0.000354671, Final residual = 9.95389e-07, No Iterations 172
time step continuity errors : sum local = 7.13504e-14, global = -7.53162e-16, cumulative = 1.83961e-10
ExecutionTime = 8.3 s  ClockTime = 8 s

Time = 0.81

Courant Number mean: 0.000752238 max: 0.0144886
smoothSolver:  Solving for Ux, Initial residual = 0.000200809, Final residual = 6.79296e-07, No Iterations 1
smoothSolver:  Solving for Uy, Initial residual = 0.00086197, Final residual = 1.2452e-06, No Iterations 1
DICPCG:  Solving for p, Initial residual = 0.00263925, Final residual = 0.00013027, No Iterations 41
time step continuity errors : sum local = 9.32967e-12, global = 3.97513e-16, cumulative = 1.83962e-10
DICPCG:  Solving for p, Initial residual = 0.000352543, Final residual = 9.24887e-07, No Iterations 173
time step continuity errors : sum local = 6.62001e-14, global = -7.27169e-16, cumulative = 1.83961e-10
ExecutionTime = 8.39 s  ClockTime = 8 s

Time = 0.82

Courant Number mean: 0.000752207 max: 0.0144549
smoothSolver:  Solving for Ux, Initial residual = 0.000198283, Final residual = 6.67906e-07, No Iterations 1
smoothSolver:  Solving for Uy, Initial residual = 0.000855086, Final residual = 1.23018e-06, No Iterations 1
DICPCG:  Solving for p, Initial residual = 0.00265542, Final residual = 0.00012823, No Iterations 41
time step continuity errors : sum local = 9.17007e-12, global = 2.43337e-16, cumulative = 1.83961e-10
DICPCG:  Solving for p, Initial residual = 0.000350563, Final residual = 9.46237e-07, No Iterations 172
time step continuity errors : sum local = 6.76277e-14, global = -6.97323e-16, cumulative = 1.8396e-10
ExecutionTime = 8.48 s  ClockTime = 8 s

Time = 0.83

Courant Number mean: 0.000752176 max: 0.0144213
smoothSolver:  Solving for Ux, Initial residual = 0.000195823, Final residual = 6.56853e-07, No Iterations 1
smoothSolver:  Solving for Uy, Initial residual = 0.000848337, Final residual = 1.21547e-06, No Iterations 1
DICPCG:  Solving for p, Initial residual = 0.00262862, Final residual = 0.000127787, No Iterations 41
time step continuity errors : sum local = 9.12441e-12, global = 3.47558e-16, cumulative = 1.83961e-10
DICPCG:  Solving for p, Initial residual = 0.000347682, Final residual = 8.80399e-07, No Iterations 172
time step continuity errors : sum local = 6.28233e-14, global = -6.67874e-16, cumulative = 1.8396e-10
ExecutionTime = 8.57 s  ClockTime = 9 s

Time = 0.84

Courant Number mean: 0.000752146 max: 0.0143877
smoothSolver:  Solving for Ux, Initial residual = 0.000193426, Final residual = 6.46126e-07, No Iterations 1
smoothSolver:  Solving for Uy, Initial residual = 0.000841736, Final residual = 1.20114e-06, No Iterations 1
DICPCG:  Solving for p, Initial residual = 0.0026209, Final residual = 0.000130306, No Iterations 43
time step continuity errors : sum local = 9.2896e-12, global = 2.5096e-16, cumulative = 1.8396e-10
DICPCG:  Solving for p, Initial residual = 0.000347919, Final residual = 9.86741e-07, No Iterations 171
time step continuity errors : sum local = 7.03006e-14, global = -2.81875e-16, cumulative = 1.8396e-10
ExecutionTime = 8.66 s  ClockTime = 9 s

Time = 0.85

Courant Number mean: 0.000752116 max: 0.0143544
smoothSolver:  Solving for Ux, Initial residual = 0.000191098, Final residual = 6.3576e-07, No Iterations 1
smoothSolver:  Solving for Uy, Initial residual = 0.000835195, Final residual = 1.18699e-06, No Iterations 1
DICPCG:  Solving for p, Initial residual = 0.00258278, Final residual = 0.000115203, No Iterations 41
time step continuity errors : sum local = 8.19932e-12, global = 3.60914e-16, cumulative = 1.8396e-10
DICPCG:  Solving for p, Initial residual = 0.000334743, Final residual = 9.95434e-07, No Iterations 171
time step continuity errors : sum local = 7.07962e-14, global = -3.03368e-16, cumulative = 1.8396e-10
ExecutionTime = 8.75 s  ClockTime = 9 s

Time = 0.86

Courant Number mean: 0.000752086 max: 0.0143211
smoothSolver:  Solving for Ux, Initial residual = 0.000188816, Final residual = 6.25629e-07, No Iterations 1
smoothSolver:  Solving for Uy, Initial residual = 0.00082887, Final residual = 1.17325e-06, No Iterations 1
DICPCG:  Solving for p, Initial residual = 0.00246707, Final residual = 0.000118824, No Iterations 41
time step continuity errors : sum local = 8.44338e-12, global = 3.4782e-16, cumulative = 1.8396e-10
DICPCG:  Solving for p, Initial residual = 0.000330067, Final residual = 8.74465e-07, No Iterations 172
time step continuity errors : sum local = 6.20989e-14, global = -6.28193e-16, cumulative = 1.8396e-10
ExecutionTime = 8.84 s  ClockTime = 9 s

Time = 0.87

Courant Number mean: 0.000752057 max: 0.014288
smoothSolver:  Solving for Ux, Initial residual = 0.000186595, Final residual = 6.15824e-07, No Iterations 1
smoothSolver:  Solving for Uy, Initial residual = 0.000822618, Final residual = 1.15978e-06, No Iterations 1
DICPCG:  Solving for p, Initial residual = 0.002514, Final residual = 0.000120209, No Iterations 41
time step continuity errors : sum local = 8.52937e-12, global = 2.30889e-16, cumulative = 1.8396e-10
DICPCG:  Solving for p, Initial residual = 0.000334676, Final residual = 8.99429e-07, No Iterations 172
time step continuity errors : sum local = 6.37826e-14, global = -6.73543e-16, cumulative = 1.83959e-10
ExecutionTime = 8.94 s  ClockTime = 9 s

Time = 0.88

Courant Number mean: 0.000752028 max: 0.014255
smoothSolver:  Solving for Ux, Initial residual = 0.000184435, Final residual = 6.06297e-07, No Iterations 1
smoothSolver:  Solving for Uy, Initial residual = 0.00081647, Final residual = 1.14659e-06, No Iterations 1
DICPCG:  Solving for p, Initial residual = 0.00248896, Final residual = 0.00011744, No Iterations 41
time step continuity errors : sum local = 8.31939e-12, global = 2.87877e-16, cumulative = 1.8396e-10
DICPCG:  Solving for p, Initial residual = 0.000328833, Final residual = 9.98987e-07, No Iterations 171
time step continuity errors : sum local = 7.07125e-14, global = -4.63732e-16, cumulative = 1.83959e-10
ExecutionTime = 9.03 s  ClockTime = 9 s

Time = 0.89

Courant Number mean: 0.000751999 max: 0.0142222
smoothSolver:  Solving for Ux, Initial residual = 0.000182319, Final residual = 5.97e-07, No Iterations 1
smoothSolver:  Solving for Uy, Initial residual = 0.000810503, Final residual = 1.13404e-06, No Iterations 1
DICPCG:  Solving for p, Initial residual = 0.00244966, Final residual = 0.000114164, No Iterations 41
time step continuity errors : sum local = 8.07266e-12, global = 3.63963e-16, cumulative = 1.8396e-10
DICPCG:  Solving for p, Initial residual = 0.000322123, Final residual = 9.68363e-07, No Iterations 171
time step continuity errors : sum local = 6.84214e-14, global = -4.18816e-16, cumulative = 1.83959e-10
ExecutionTime = 9.12 s  ClockTime = 9 s

Time = 0.9

Courant Number mean: 0.00075197 max: 0.0141895
smoothSolver:  Solving for Ux, Initial residual = 0.000180252, Final residual = 5.87972e-07, No Iterations 1
smoothSolver:  Solving for Uy, Initial residual = 0.000804648, Final residual = 1.12172e-06, No Iterations 1
DICPCG:  Solving for p, Initial residual = 0.00234449, Final residual = 0.000114087, No Iterations 41
time step continuity errors : sum local = 8.05287e-12, global = 3.23948e-16, cumulative = 1.83959e-10
DICPCG:  Solving for p, Initial residual = 0.000320123, Final residual = 9.70319e-07, No Iterations 171
time step continuity errors : sum local = 6.84387e-14, global = -4.97855e-16, cumulative = 1.83959e-10
ExecutionTime = 9.21 s  ClockTime = 9 s

Time = 0.91

Courant Number mean: 0.000751941 max: 0.014157
smoothSolver:  Solving for Ux, Initial residual = 0.00017824, Final residual = 5.79188e-07, No Iterations 1
smoothSolver:  Solving for Uy, Initial residual = 0.000798869, Final residual = 1.1094e-06, No Iterations 1
DICPCG:  Solving for p, Initial residual = 0.00233103, Final residual = 0.000110167, No Iterations 41
time step continuity errors : sum local = 7.7621e-12, global = 2.97926e-16, cumulative = 1.83959e-10
DICPCG:  Solving for p, Initial residual = 0.000318561, Final residual = 9.9068e-07, No Iterations 171
time step continuity errors : sum local = 6.97458e-14, global = -5.45144e-16, cumulative = 1.83959e-10
ExecutionTime = 9.3 s  ClockTime = 9 s

Time = 0.92

Courant Number mean: 0.000751913 max: 0.0141246
smoothSolver:  Solving for Ux, Initial residual = 0.000176278, Final residual = 5.70635e-07, No Iterations 1
smoothSolver:  Solving for Uy, Initial residual = 0.000793183, Final residual = 1.09737e-06, No Iterations 1
DICPCG:  Solving for p, Initial residual = 0.00228996, Final residual = 0.000109973, No Iterations 41
time step continuity errors : sum local = 7.73432e-12, global = 3.00103e-16, cumulative = 1.83959e-10
DICPCG:  Solving for p, Initial residual = 0.000312354, Final residual = 9.68586e-07, No Iterations 171
time step continuity errors : sum local = 6.8067e-14, global = -5.19771e-16, cumulative = 1.83959e-10
ExecutionTime = 9.39 s  ClockTime = 9 s

Time = 0.93

Courant Number mean: 0.000751884 max: 0.0140924
smoothSolver:  Solving for Ux, Initial residual = 0.000174358, Final residual = 5.62302e-07, No Iterations 1
smoothSolver:  Solving for Uy, Initial residual = 0.000787593, Final residual = 1.08568e-06, No Iterations 1
DICPCG:  Solving for p, Initial residual = 0.00223216, Final residual = 0.000107114, No Iterations 41
time step continuity errors : sum local = 7.51998e-12, global = 3.05324e-16, cumulative = 1.83959e-10
DICPCG:  Solving for p, Initial residual = 0.000304863, Final residual = 9.34367e-07, No Iterations 171
time step continuity errors : sum local = 6.55488e-14, global = -4.18712e-16, cumulative = 1.83958e-10
ExecutionTime = 9.48 s  ClockTime = 9 s

Time = 0.94

Courant Number mean: 0.000751856 max: 0.0140603
smoothSolver:  Solving for Ux, Initial residual = 0.00017248, Final residual = 5.54202e-07, No Iterations 1
smoothSolver:  Solving for Uy, Initial residual = 0.000782087, Final residual = 1.07405e-06, No Iterations 1
DICPCG:  Solving for p, Initial residual = 0.00220507, Final residual = 0.000105269, No Iterations 41
time step continuity errors : sum local = 7.37774e-12, global = 2.86271e-16, cumulative = 1.83959e-10
DICPCG:  Solving for p, Initial residual = 0.000300838, Final residual = 9.1879e-07, No Iterations 171
time step continuity errors : sum local = 6.43457e-14, global = -3.8235e-16, cumulative = 1.83958e-10
ExecutionTime = 9.57 s  ClockTime = 10 s

Time = 0.95

Courant Number mean: 0.000751829 max: 0.0140283
smoothSolver:  Solving for Ux, Initial residual = 0.000170643, Final residual = 5.46324e-07, No Iterations 1
smoothSolver:  Solving for Uy, Initial residual = 0.000776674, Final residual = 1.06261e-06, No Iterations 1
DICPCG:  Solving for p, Initial residual = 0.00219222, Final residual = 0.000103833, No Iterations 41
time step continuity errors : sum local = 7.26475e-12, global = 2.83234e-16, cumulative = 1.83959e-10
DICPCG:  Solving for p, Initial residual = 0.000297669, Final residual = 9.05611e-07, No Iterations 171
time step continuity errors : sum local = 6.33156e-14, global = -3.64015e-16, cumulative = 1.83958e-10
ExecutionTime = 9.66 s  ClockTime = 10 s

Time = 0.96

Courant Number mean: 0.000751801 max: 0.0139966
smoothSolver:  Solving for Ux, Initial residual = 0.000168846, Final residual = 5.38659e-07, No Iterations 1
smoothSolver:  Solving for Uy, Initial residual = 0.000771349, Final residual = 1.05139e-06, No Iterations 1
DICPCG:  Solving for p, Initial residual = 0.00219409, Final residual = 0.000102641, No Iterations 41
time step continuity errors : sum local = 7.16932e-12, global = 2.76274e-16, cumulative = 1.83958e-10
DICPCG:  Solving for p, Initial residual = 0.000295591, Final residual = 8.96551e-07, No Iterations 171
time step continuity errors : sum local = 6.25783e-14, global = -3.45507e-16, cumulative = 1.83958e-10
ExecutionTime = 9.76 s  ClockTime = 10 s

Time = 0.97

Courant Number mean: 0.000751774 max: 0.013965
smoothSolver:  Solving for Ux, Initial residual = 0.000167089, Final residual = 5.312e-07, No Iterations 1
smoothSolver:  Solving for Uy, Initial residual = 0.000766108, Final residual = 1.04036e-06, No Iterations 1
DICPCG:  Solving for p, Initial residual = 0.00221989, Final residual = 0.000103006, No Iterations 41
time step continuity errors : sum local = 7.183e-12, global = 2.70397e-16, cumulative = 1.83958e-10
DICPCG:  Solving for p, Initial residual = 0.000295654, Final residual = 8.6891e-07, No Iterations 171
time step continuity errors : sum local = 6.05495e-14, global = -2.72213e-16, cumulative = 1.83958e-10
ExecutionTime = 9.85 s  ClockTime = 10 s

Time = 0.98

Courant Number mean: 0.000751746 max: 0.0139335
smoothSolver:  Solving for Ux, Initial residual = 0.000165368, Final residual = 5.23937e-07, No Iterations 1
smoothSolver:  Solving for Uy, Initial residual = 0.000760959, Final residual = 1.02954e-06, No Iterations 1
DICPCG:  Solving for p, Initial residual = 0.00220826, Final residual = 0.000103695, No Iterations 41
time step continuity errors : sum local = 7.21835e-12, global = 2.83265e-16, cumulative = 1.83958e-10
DICPCG:  Solving for p, Initial residual = 0.000294435, Final residual = 9.16178e-07, No Iterations 171
time step continuity errors : sum local = 6.37239e-14, global = -4.61722e-16, cumulative = 1.83958e-10
ExecutionTime = 9.94 s  ClockTime = 10 s

Time = 0.99

Courant Number mean: 0.000751719 max: 0.0139022
smoothSolver:  Solving for Ux, Initial residual = 0.000163684, Final residual = 5.16851e-07, No Iterations 1
smoothSolver:  Solving for Uy, Initial residual = 0.000755901, Final residual = 1.01904e-06, No Iterations 1
DICPCG:  Solving for p, Initial residual = 0.00225579, Final residual = 0.000106849, No Iterations 41
time step continuity errors : sum local = 7.42448e-12, global = 2.46135e-16, cumulative = 1.83958e-10
DICPCG:  Solving for p, Initial residual = 0.000296325, Final residual = 9.3254e-07, No Iterations 171
time step continuity errors : sum local = 6.47497e-14, global = -4.79494e-16, cumulative = 1.83958e-10
ExecutionTime = 10.03 s  ClockTime = 10 s

Time = 1

Courant Number mean: 0.000751692 max: 0.0138711
smoothSolver:  Solving for Ux, Initial residual = 0.00016204, Final residual = 5.09961e-07, No Iterations 1
smoothSolver:  Solving for Uy, Initial residual = 0.000750888, Final residual = 1.00872e-06, No Iterations 1
DICPCG:  Solving for p, Initial residual = 0.0022617, Final residual = 0.00011182, No Iterations 40
time step continuity errors : sum local = 7.75612e-12, global = 3.15691e-16, cumulative = 1.83958e-10
DICPCG:  Solving for p, Initial residual = 0.00030036, Final residual = 9.19086e-07, No Iterations 171
time step continuity errors : sum local = 6.36997e-14, global = -6.55762e-16, cumulative = 1.83957e-10
ExecutionTime = 10.31 s  ClockTime = 10 s

Time = 1.01

Courant Number mean: 0.000751666 max: 0.0138402
smoothSolver:  Solving for Ux, Initial residual = 0.000160422, Final residual = 5.03188e-07, No Iterations 1
smoothSolver:  Solving for Uy, Initial residual = 0.000746046, Final residual = 9.98585e-07, No Iterations 1
DICPCG:  Solving for p, Initial residual = 0.00229703, Final residual = 0.000112255, No Iterations 34
time step continuity errors : sum local = 7.77129e-12, global = 2.34447e-17, cumulative = 1.83957e-10
DICPCG:  Solving for p, Initial residual = 0.000310069, Final residual = 9.25632e-07, No Iterations 193
time step continuity errors : sum local = 6.40213e-14, global = -1.00956e-15, cumulative = 1.83956e-10
ExecutionTime = 10.4 s  ClockTime = 10 s

Time = 1.02

Courant Number mean: 0.000751639 max: 0.0138094
smoothSolver:  Solving for Ux, Initial residual = 0.000158843, Final residual = 4.96581e-07, No Iterations 1
smoothSolver:  Solving for Uy, Initial residual = 0.000741228, Final residual = 9.887e-07, No Iterations 1
DICPCG:  Solving for p, Initial residual = 0.00217709, Final residual = 9.58688e-05, No Iterations 41
time step continuity errors : sum local = 6.62458e-12, global = -2.60728e-16, cumulative = 1.83956e-10
DICPCG:  Solving for p, Initial residual = 0.000283074, Final residual = 9.98655e-07, No Iterations 170
time step continuity errors : sum local = 6.89591e-14, global = -3.21178e-17, cumulative = 1.83956e-10
ExecutionTime = 10.49 s  ClockTime = 10 s

Time = 1.03

Courant Number mean: 0.000751613 max: 0.0137788
smoothSolver:  Solving for Ux, Initial residual = 0.000157296, Final residual = 4.90155e-07, No Iterations 1
smoothSolver:  Solving for Uy, Initial residual = 0.00073651, Final residual = 9.78921e-07, No Iterations 1
DICPCG:  Solving for p, Initial residual = 0.00222296, Final residual = 0.000108873, No Iterations 40
time step continuity errors : sum local = 7.51068e-12, global = 7.47913e-16, cumulative = 1.83957e-10
DICPCG:  Solving for p, Initial residual = 0.000289535, Final residual = 9.05859e-07, No Iterations 172
time step continuity errors : sum local = 6.24449e-14, global = -4.28225e-16, cumulative = 1.83956e-10
ExecutionTime = 10.58 s  ClockTime = 11 s

Time = 1.04

Courant Number mean: 0.000751587 max: 0.0137483
smoothSolver:  Solving for Ux, Initial residual = 0.000155782, Final residual = 4.83913e-07, No Iterations 1
smoothSolver:  Solving for Uy, Initial residual = 0.000731806, Final residual = 9.69356e-07, No Iterations 1
DICPCG:  Solving for p, Initial residual = 0.00209874, Final residual = 9.54346e-05, No Iterations 41
time step continuity errors : sum local = 6.57188e-12, global = 3.38602e-16, cumulative = 1.83957e-10
DICPCG:  Solving for p, Initial residual = 0.000276545, Final residual = 8.85179e-07, No Iterations 171
time step continuity errors : sum local = 6.0904e-14, global = -3.75697e-16, cumulative = 1.83956e-10
ExecutionTime = 10.67 s  ClockTime = 11 s

Time = 1.05

Courant Number mean: 0.000751561 max: 0.013718
smoothSolver:  Solving for Ux, Initial residual = 0.00015429, Final residual = 4.77784e-07, No Iterations 1
smoothSolver:  Solving for Uy, Initial residual = 0.000727197, Final residual = 9.59956e-07, No Iterations 1
DICPCG:  Solving for p, Initial residual = 0.00220622, Final residual = 0.000107724, No Iterations 40
time step continuity errors : sum local = 7.40388e-12, global = 1.59673e-16, cumulative = 1.83957e-10
DICPCG:  Solving for p, Initial residual = 0.000285653, Final residual = 8.72656e-07, No Iterations 172
time step continuity errors : sum local = 5.99258e-14, global = -5.46648e-16, cumulative = 1.83956e-10
ExecutionTime = 10.76 s  ClockTime = 11 s

Time = 1.06

Courant Number mean: 0.000751535 max: 0.0136879
smoothSolver:  Solving for Ux, Initial residual = 0.000152833, Final residual = 4.71812e-07, No Iterations 1
smoothSolver:  Solving for Uy, Initial residual = 0.000722682, Final residual = 9.50751e-07, No Iterations 1
DICPCG:  Solving for p, Initial residual = 0.00210458, Final residual = 0.000103449, No Iterations 40
time step continuity errors : sum local = 7.09612e-12, global = 2.15912e-16, cumulative = 1.83956e-10
DICPCG:  Solving for p, Initial residual = 0.000278231, Final residual = 9.91369e-07, No Iterations 170
time step continuity errors : sum local = 6.79418e-14, global = -1.30702e-16, cumulative = 1.83956e-10
ExecutionTime = 10.85 s  ClockTime = 11 s

Time = 1.07

Courant Number mean: 0.000751509 max: 0.0136579
smoothSolver:  Solving for Ux, Initial residual = 0.000151393, Final residual = 4.65944e-07, No Iterations 1
smoothSolver:  Solving for Uy, Initial residual = 0.000718255, Final residual = 9.41711e-07, No Iterations 1
DICPCG:  Solving for p, Initial residual = 0.00204012, Final residual = 0.000101079, No Iterations 40
time step continuity errors : sum local = 6.91998e-12, global = 4.78913e-16, cumulative = 1.83957e-10
DICPCG:  Solving for p, Initial residual = 0.000270198, Final residual = 9.92602e-07, No Iterations 170
time step continuity errors : sum local = 6.7897e-14, global = -2.39244e-16, cumulative = 1.83956e-10
ExecutionTime = 10.94 s  ClockTime = 11 s

Time = 1.08

Courant Number mean: 0.000751484 max: 0.0136281
smoothSolver:  Solving for Ux, Initial residual = 0.000149986, Final residual = 4.60228e-07, No Iterations 1
smoothSolver:  Solving for Uy, Initial residual = 0.000713886, Final residual = 9.32817e-07, No Iterations 1
DICPCG:  Solving for p, Initial residual = 0.00210875, Final residual = 0.000101112, No Iterations 40
time step continuity errors : sum local = 6.90859e-12, global = 2.96579e-16, cumulative = 1.83957e-10
DICPCG:  Solving for p, Initial residual = 0.000272099, Final residual = 8.54175e-07, No Iterations 171
time step continuity errors : sum local = 5.83085e-14, global = -3.55102e-16, cumulative = 1.83956e-10
ExecutionTime = 11.04 s  ClockTime = 11 s

Time = 1.09

Courant Number mean: 0.000751458 max: 0.0135985
smoothSolver:  Solving for Ux, Initial residual = 0.000148605, Final residual = 4.54641e-07, No Iterations 1
smoothSolver:  Solving for Uy, Initial residual = 0.000709594, Final residual = 9.2418e-07, No Iterations 1
[...]
ExecutionTime = 408.76 s  ClockTime = 410 s

Time = 39.74

Courant Number mean: 0.000735804 max: 0.00699461
smoothSolver:  Solving for Ux, Initial residual = 4.09079e-06, Final residual = 4.09079e-06, No Iterations 0
smoothSolver:  Solving for Uy, Initial residual = 3.9396e-05, Final residual = 1.24977e-08, No Iterations 1
DICPCG:  Solving for p, Initial residual = 0.000470295, Final residual = 2.24754e-05, No Iterations 87
time step continuity errors : sum local = 4.78543e-13, global = 7.9136e-14, cumulative = 4.02901e-10
DICPCG:  Solving for p, Initial residual = 0.00047089, Final residual = 8.62195e-07, No Iterations 208
time step continuity errors : sum local = 1.83566e-14, global = 2.76204e-18, cumulative = 4.02901e-10
ExecutionTime = 408.87 s  ClockTime = 410 s

Time = 39.75

Courant Number mean: 0.000735802 max: 0.0069942
smoothSolver:  Solving for Ux, Initial residual = 4.09006e-06, Final residual = 4.09006e-06, No Iterations 0
smoothSolver:  Solving for Uy, Initial residual = 3.93877e-05, Final residual = 1.24929e-08, No Iterations 1
DICPCG:  Solving for p, Initial residual = 0.00047011, Final residual = 2.23096e-05, No Iterations 87
time step continuity errors : sum local = 4.74987e-13, global = 7.92152e-14, cumulative = 4.0298e-10
DICPCG:  Solving for p, Initial residual = 0.000470707, Final residual = 9.04961e-07, No Iterations 208
time step continuity errors : sum local = 1.9266e-14, global = -2.0305e-18, cumulative = 4.0298e-10
ExecutionTime = 408.98 s  ClockTime = 410 s

Time = 39.76

Courant Number mean: 0.000735801 max: 0.00699379
smoothSolver:  Solving for Ux, Initial residual = 4.08934e-06, Final residual = 4.08934e-06, No Iterations 0
smoothSolver:  Solving for Uy, Initial residual = 3.93797e-05, Final residual = 1.24881e-08, No Iterations 1
DICPCG:  Solving for p, Initial residual = 0.000469988, Final residual = 2.20665e-05, No Iterations 87
time step continuity errors : sum local = 4.69784e-13, global = 7.9388e-14, cumulative = 4.03059e-10
DICPCG:  Solving for p, Initial residual = 0.000470792, Final residual = 9.16846e-07, No Iterations 208
time step continuity errors : sum local = 1.95179e-14, global = -3.8287e-18, cumulative = 4.03059e-10
ExecutionTime = 409.1 s  ClockTime = 410 s

Time = 39.77

Courant Number mean: 0.000735799 max: 0.00699338
smoothSolver:  Solving for Ux, Initial residual = 4.08862e-06, Final residual = 4.08862e-06, No Iterations 0
smoothSolver:  Solving for Uy, Initial residual = 3.93716e-05, Final residual = 1.24833e-08, No Iterations 1
DICPCG:  Solving for p, Initial residual = 0.000469849, Final residual = 2.23147e-05, No Iterations 87
time step continuity errors : sum local = 4.75041e-13, global = 7.92185e-14, cumulative = 4.03138e-10
DICPCG:  Solving for p, Initial residual = 0.000470653, Final residual = 8.79339e-07, No Iterations 208
time step continuity errors : sum local = 1.87184e-14, global = 8.76327e-18, cumulative = 4.03138e-10
ExecutionTime = 409.21 s  ClockTime = 410 s

Time = 39.78

Courant Number mean: 0.000735797 max: 0.00699297
smoothSolver:  Solving for Ux, Initial residual = 4.0879e-06, Final residual = 4.0879e-06, No Iterations 0
smoothSolver:  Solving for Uy, Initial residual = 3.93634e-05, Final residual = 1.24785e-08, No Iterations 1
DICPCG:  Solving for p, Initial residual = 0.000469732, Final residual = 2.22651e-05, No Iterations 87
time step continuity errors : sum local = 4.73958e-13, global = 7.92388e-14, cumulative = 4.03218e-10
DICPCG:  Solving for p, Initial residual = 0.000470625, Final residual = 9.09993e-07, No Iterations 208
time step continuity errors : sum local = 1.93699e-14, global = -3.36602e-18, cumulative = 4.03218e-10
ExecutionTime = 409.32 s  ClockTime = 410 s

Time = 39.79

Courant Number mean: 0.000735796 max: 0.00699257
smoothSolver:  Solving for Ux, Initial residual = 4.08718e-06, Final residual = 4.08718e-06, No Iterations 0
smoothSolver:  Solving for Uy, Initial residual = 3.93554e-05, Final residual = 1.24736e-08, No Iterations 1
DICPCG:  Solving for p, Initial residual = 0.000469646, Final residual = 2.20819e-05, No Iterations 87
time step continuity errors : sum local = 4.70032e-13, global = 7.9297e-14, cumulative = 4.03297e-10
DICPCG:  Solving for p, Initial residual = 0.000470187, Final residual = 8.62501e-07, No Iterations 208
time step continuity errors : sum local = 1.83579e-14, global = 5.65718e-18, cumulative = 4.03297e-10
ExecutionTime = 409.44 s  ClockTime = 410 s

Time = 39.8

Courant Number mean: 0.000735794 max: 0.00699216
smoothSolver:  Solving for Ux, Initial residual = 4.08646e-06, Final residual = 4.08646e-06, No Iterations 0
smoothSolver:  Solving for Uy, Initial residual = 3.93472e-05, Final residual = 1.24689e-08, No Iterations 1
DICPCG:  Solving for p, Initial residual = 0.000469508, Final residual = 2.23584e-05, No Iterations 87
time step continuity errors : sum local = 4.7589e-13, global = 7.91539e-14, cumulative = 4.03376e-10
DICPCG:  Solving for p, Initial residual = 0.00047013, Final residual = 8.75499e-07, No Iterations 208
time step continuity errors : sum local = 1.86335e-14, global = 3.39126e-18, cumulative = 4.03376e-10
ExecutionTime = 409.55 s  ClockTime = 410 s

Time = 39.81

Courant Number mean: 0.000735793 max: 0.00699175
smoothSolver:  Solving for Ux, Initial residual = 4.08574e-06, Final residual = 4.08574e-06, No Iterations 0
smoothSolver:  Solving for Uy, Initial residual = 3.93391e-05, Final residual = 1.24641e-08, No Iterations 1
DICPCG:  Solving for p, Initial residual = 0.000469425, Final residual = 2.21975e-05, No Iterations 87
time step continuity errors : sum local = 4.72438e-13, global = 7.92229e-14, cumulative = 4.03455e-10
DICPCG:  Solving for p, Initial residual = 0.000470162, Final residual = 9.09576e-07, No Iterations 208
time step continuity errors : sum local = 1.93577e-14, global = -2.78867e-18, cumulative = 4.03455e-10
ExecutionTime = 409.66 s  ClockTime = 410 s

Time = 39.82

Courant Number mean: 0.000735791 max: 0.00699134
smoothSolver:  Solving for Ux, Initial residual = 4.08502e-06, Final residual = 4.08502e-06, No Iterations 0
smoothSolver:  Solving for Uy, Initial residual = 3.9331e-05, Final residual = 1.24593e-08, No Iterations 1
DICPCG:  Solving for p, Initial residual = 0.00046931, Final residual = 2.2478e-05, No Iterations 87
time step continuity errors : sum local = 4.78382e-13, global = 7.90982e-14, cumulative = 4.03534e-10
DICPCG:  Solving for p, Initial residual = 0.000469999, Final residual = 9.82622e-07, No Iterations 207
time step continuity errors : sum local = 2.0911e-14, global = -5.51831e-17, cumulative = 4.03534e-10
ExecutionTime = 409.78 s  ClockTime = 411 s

Time = 39.83

Courant Number mean: 0.00073579 max: 0.00699094
smoothSolver:  Solving for Ux, Initial residual = 4.0843e-06, Final residual = 4.0843e-06, No Iterations 0
smoothSolver:  Solving for Uy, Initial residual = 3.9323e-05, Final residual = 1.24545e-08, No Iterations 1
DICPCG:  Solving for p, Initial residual = 0.000469281, Final residual = 2.24076e-05, No Iterations 87
time step continuity errors : sum local = 4.76857e-13, global = 7.90988e-14, cumulative = 4.03613e-10
DICPCG:  Solving for p, Initial residual = 0.000469946, Final residual = 9.80645e-07, No Iterations 207
time step continuity errors : sum local = 2.08678e-14, global = -5.11972e-17, cumulative = 4.03613e-10
ExecutionTime = 409.89 s  ClockTime = 411 s

Time = 39.84

Courant Number mean: 0.000735788 max: 0.00699053
smoothSolver:  Solving for Ux, Initial residual = 4.08358e-06, Final residual = 4.08358e-06, No Iterations 0
smoothSolver:  Solving for Uy, Initial residual = 3.93148e-05, Final residual = 1.24497e-08, No Iterations 1
DICPCG:  Solving for p, Initial residual = 0.000469104, Final residual = 2.19294e-05, No Iterations 87
time step continuity errors : sum local = 4.66654e-13, global = 7.93678e-14, cumulative = 4.03693e-10
DICPCG:  Solving for p, Initial residual = 0.00046967, Final residual = 9.86543e-07, No Iterations 207
time step continuity errors : sum local = 2.09921e-14, global = -5.59164e-17, cumulative = 4.03693e-10
ExecutionTime = 410.01 s  ClockTime = 411 s

Time = 39.85

Courant Number mean: 0.000735786 max: 0.00699012
smoothSolver:  Solving for Ux, Initial residual = 4.08286e-06, Final residual = 4.08286e-06, No Iterations 0
smoothSolver:  Solving for Uy, Initial residual = 3.93068e-05, Final residual = 1.24449e-08, No Iterations 1
DICPCG:  Solving for p, Initial residual = 0.000469023, Final residual = 2.23138e-05, No Iterations 87
time step continuity errors : sum local = 4.74806e-13, global = 7.91296e-14, cumulative = 4.03772e-10
DICPCG:  Solving for p, Initial residual = 0.000469695, Final residual = 8.65188e-07, No Iterations 208
time step continuity errors : sum local = 1.84088e-14, global = 3.77808e-18, cumulative = 4.03772e-10
ExecutionTime = 410.12 s  ClockTime = 411 s

Time = 39.86

Courant Number mean: 0.000735785 max: 0.00698971
smoothSolver:  Solving for Ux, Initial residual = 4.08214e-06, Final residual = 4.08214e-06, No Iterations 0
smoothSolver:  Solving for Uy, Initial residual = 3.92986e-05, Final residual = 1.24401e-08, No Iterations 1
DICPCG:  Solving for p, Initial residual = 0.000468888, Final residual = 2.24301e-05, No Iterations 87
time step continuity errors : sum local = 4.77253e-13, global = 7.90842e-14, cumulative = 4.03851e-10
DICPCG:  Solving for p, Initial residual = 0.000469647, Final residual = 9.97477e-07, No Iterations 207
time step continuity errors : sum local = 2.12223e-14, global = -4.77976e-17, cumulative = 4.03851e-10
ExecutionTime = 410.23 s  ClockTime = 411 s

Time = 39.87

Courant Number mean: 0.000735783 max: 0.00698931
smoothSolver:  Solving for Ux, Initial residual = 4.08143e-06, Final residual = 4.08143e-06, No Iterations 0
smoothSolver:  Solving for Uy, Initial residual = 3.92907e-05, Final residual = 1.24353e-08, No Iterations 1
DICPCG:  Solving for p, Initial residual = 0.000468857, Final residual = 2.24647e-05, No Iterations 87
time step continuity errors : sum local = 4.77962e-13, global = 7.90476e-14, cumulative = 4.0393e-10
DICPCG:  Solving for p, Initial residual = 0.000469408, Final residual = 8.97453e-07, No Iterations 208
time step continuity errors : sum local = 1.90931e-14, global = -1.10564e-18, cumulative = 4.0393e-10
ExecutionTime = 410.34 s  ClockTime = 411 s

Time = 39.88

Courant Number mean: 0.000735782 max: 0.0069889
smoothSolver:  Solving for Ux, Initial residual = 4.08071e-06, Final residual = 4.08071e-06, No Iterations 0
smoothSolver:  Solving for Uy, Initial residual = 3.92826e-05, Final residual = 1.24305e-08, No Iterations 1
DICPCG:  Solving for p, Initial residual = 0.000468675, Final residual = 2.19318e-05, No Iterations 87
time step continuity errors : sum local = 4.66598e-13, global = 7.93814e-14, cumulative = 4.04009e-10
DICPCG:  Solving for p, Initial residual = 0.00046934, Final residual = 8.66756e-07, No Iterations 208
time step continuity errors : sum local = 1.8439e-14, global = 7.65121e-18, cumulative = 4.04009e-10
ExecutionTime = 410.45 s  ClockTime = 411 s

Time = 39.89

Courant Number mean: 0.00073578 max: 0.00698849
smoothSolver:  Solving for Ux, Initial residual = 4.07999e-06, Final residual = 4.07999e-06, No Iterations 0
smoothSolver:  Solving for Uy, Initial residual = 3.92746e-05, Final residual = 1.24258e-08, No Iterations 1
DICPCG:  Solving for p, Initial residual = 0.00046854, Final residual = 2.24249e-05, No Iterations 87
time step continuity errors : sum local = 4.77061e-13, global = 7.90945e-14, cumulative = 4.04088e-10
DICPCG:  Solving for p, Initial residual = 0.000469271, Final residual = 8.63241e-07, No Iterations 208
time step continuity errors : sum local = 1.83632e-14, global = 6.98885e-18, cumulative = 4.04088e-10
ExecutionTime = 410.57 s  ClockTime = 411 s

Time = 39.9

Courant Number mean: 0.000735779 max: 0.00698809
smoothSolver:  Solving for Ux, Initial residual = 4.07928e-06, Final residual = 4.07928e-06, No Iterations 0
smoothSolver:  Solving for Uy, Initial residual = 3.92665e-05, Final residual = 1.2421e-08, No Iterations 1
DICPCG:  Solving for p, Initial residual = 0.00046843, Final residual = 2.23933e-05, No Iterations 87
time step continuity errors : sum local = 4.76363e-13, global = 7.91013e-14, cumulative = 4.04168e-10
DICPCG:  Solving for p, Initial residual = 0.000469266, Final residual = 9.7735e-07, No Iterations 207
time step continuity errors : sum local = 2.07894e-14, global = -5.05931e-17, cumulative = 4.04167e-10
ExecutionTime = 410.68 s  ClockTime = 411 s

Time = 39.91

Courant Number mean: 0.000735777 max: 0.00698768
smoothSolver:  Solving for Ux, Initial residual = 4.07856e-06, Final residual = 4.07856e-06, No Iterations 0
smoothSolver:  Solving for Uy, Initial residual = 3.92586e-05, Final residual = 1.24162e-08, No Iterations 1
DICPCG:  Solving for p, Initial residual = 0.000468395, Final residual = 2.24213e-05, No Iterations 87
time step continuity errors : sum local = 4.76931e-13, global = 7.90457e-14, cumulative = 4.04247e-10
DICPCG:  Solving for p, Initial residual = 0.000469127, Final residual = 9.10949e-07, No Iterations 208
time step continuity errors : sum local = 1.93758e-14, global = -2.85978e-18, cumulative = 4.04247e-10
ExecutionTime = 410.79 s  ClockTime = 412 s

Time = 39.92

Courant Number mean: 0.000735776 max: 0.00698727
smoothSolver:  Solving for Ux, Initial residual = 4.07784e-06, Final residual = 4.07784e-06, No Iterations 0
smoothSolver:  Solving for Uy, Initial residual = 3.92504e-05, Final residual = 1.24114e-08, No Iterations 1
DICPCG:  Solving for p, Initial residual = 0.000468216, Final residual = 2.18544e-05, No Iterations 87
time step continuity errors : sum local = 4.64845e-13, global = 7.93775e-14, cumulative = 4.04326e-10
DICPCG:  Solving for p, Initial residual = 0.000468916, Final residual = 9.92502e-07, No Iterations 207
time step continuity errors : sum local = 2.11093e-14, global = -4.92142e-17, cumulative = 4.04326e-10
ExecutionTime = 410.91 s  ClockTime = 412 s

Time = 39.93

Courant Number mean: 0.000735774 max: 0.00698687
smoothSolver:  Solving for Ux, Initial residual = 4.07713e-06, Final residual = 4.07713e-06, No Iterations 0
smoothSolver:  Solving for Uy, Initial residual = 3.92425e-05, Final residual = 1.24067e-08, No Iterations 1
DICPCG:  Solving for p, Initial residual = 0.000468158, Final residual = 2.24043e-05, No Iterations 87
time step continuity errors : sum local = 4.76514e-13, global = 7.905e-14, cumulative = 4.04405e-10
DICPCG:  Solving for p, Initial residual = 0.000468754, Final residual = 9.9671e-07, No Iterations 207
time step continuity errors : sum local = 2.11976e-14, global = -5.71036e-17, cumulative = 4.04405e-10
ExecutionTime = 411.03 s  ClockTime = 412 s

Time = 39.94

Courant Number mean: 0.000735772 max: 0.00698646
smoothSolver:  Solving for Ux, Initial residual = 4.07641e-06, Final residual = 4.07641e-06, No Iterations 0
smoothSolver:  Solving for Uy, Initial residual = 3.92344e-05, Final residual = 1.24019e-08, No Iterations 1
DICPCG:  Solving for p, Initial residual = 0.000468023, Final residual = 2.20348e-05, No Iterations 87
time step continuity errors : sum local = 4.68629e-13, global = 7.92146e-14, cumulative = 4.04484e-10
DICPCG:  Solving for p, Initial residual = 0.000468821, Final residual = 9.07686e-07, No Iterations 208
time step continuity errors : sum local = 1.93032e-14, global = -2.4726e-18, cumulative = 4.04484e-10
ExecutionTime = 411.14 s  ClockTime = 412 s

Time = 39.95

Courant Number mean: 0.000735771 max: 0.00698606
smoothSolver:  Solving for Ux, Initial residual = 4.07569e-06, Final residual = 4.07569e-06, No Iterations 0
smoothSolver:  Solving for Uy, Initial residual = 3.92263e-05, Final residual = 1.23972e-08, No Iterations 1
DICPCG:  Solving for p, Initial residual = 0.000467917, Final residual = 2.22841e-05, No Iterations 87
time step continuity errors : sum local = 4.73905e-13, global = 7.90902e-14, cumulative = 4.04563e-10
DICPCG:  Solving for p, Initial residual = 0.000468773, Final residual = 9.93021e-07, No Iterations 207
time step continuity errors : sum local = 2.11167e-14, global = -4.76304e-17, cumulative = 4.04563e-10
ExecutionTime = 411.25 s  ClockTime = 412 s

Time = 39.96

Courant Number mean: 0.000735769 max: 0.00698565
smoothSolver:  Solving for Ux, Initial residual = 4.07498e-06, Final residual = 4.07498e-06, No Iterations 0
smoothSolver:  Solving for Uy, Initial residual = 3.92184e-05, Final residual = 1.23924e-08, No Iterations 1
DICPCG:  Solving for p, Initial residual = 0.000467838, Final residual = 2.2012e-05, No Iterations 87
time step continuity errors : sum local = 4.68091e-13, global = 7.91748e-14, cumulative = 4.04642e-10
DICPCG:  Solving for p, Initial residual = 0.000468614, Final residual = 9.13176e-07, No Iterations 208
time step continuity errors : sum local = 1.94177e-14, global = -3.10773e-18, cumulative = 4.04642e-10
ExecutionTime = 411.36 s  ClockTime = 412 s

Time = 39.97

Courant Number mean: 0.000735768 max: 0.00698525
smoothSolver:  Solving for Ux, Initial residual = 4.07426e-06, Final residual = 4.07426e-06, No Iterations 0
smoothSolver:  Solving for Uy, Initial residual = 3.92103e-05, Final residual = 1.23876e-08, No Iterations 1
DICPCG:  Solving for p, Initial residual = 0.000467667, Final residual = 2.2353e-05, No Iterations 87
time step continuity errors : sum local = 4.75316e-13, global = 7.90446e-14, cumulative = 4.04721e-10
DICPCG:  Solving for p, Initial residual = 0.000468326, Final residual = 8.54273e-07, No Iterations 208
time step continuity errors : sum local = 1.81642e-14, global = 6.40438e-18, cumulative = 4.04721e-10
ExecutionTime = 411.48 s  ClockTime = 412 s

Time = 39.98

Courant Number mean: 0.000735766 max: 0.00698484
smoothSolver:  Solving for Ux, Initial residual = 4.07355e-06, Final residual = 4.07355e-06, No Iterations 0
smoothSolver:  Solving for Uy, Initial residual = 3.92023e-05, Final residual = 1.23829e-08, No Iterations 1
DICPCG:  Solving for p, Initial residual = 0.000467543, Final residual = 2.24156e-05, No Iterations 87
time step continuity errors : sum local = 4.7662e-13, global = 7.89961e-14, cumulative = 4.048e-10
DICPCG:  Solving for p, Initial residual = 0.000468238, Final residual = 9.08049e-07, No Iterations 208
time step continuity errors : sum local = 1.93065e-14, global = -2.151e-18, cumulative = 4.048e-10
ExecutionTime = 411.59 s  ClockTime = 412 s

Time = 39.99

Courant Number mean: 0.000735765 max: 0.00698443
smoothSolver:  Solving for Ux, Initial residual = 4.07284e-06, Final residual = 4.07284e-06, No Iterations 0
smoothSolver:  Solving for Uy, Initial residual = 3.91944e-05, Final residual = 1.23781e-08, No Iterations 1
DICPCG:  Solving for p, Initial residual = 0.00046746, Final residual = 2.19947e-05, No Iterations 87
time step continuity errors : sum local = 4.67644e-13, global = 7.92267e-14, cumulative = 4.0488e-10
DICPCG:  Solving for p, Initial residual = 0.000468022, Final residual = 9.12378e-07, No Iterations 208
time step continuity errors : sum local = 1.93974e-14, global = -2.74532e-18, cumulative = 4.0488e-10
ExecutionTime = 411.71 s  ClockTime = 412 s

Time = 40

Courant Number mean: 0.000735763 max: 0.00698403
smoothSolver:  Solving for Ux, Initial residual = 4.07212e-06, Final residual = 4.07212e-06, No Iterations 0
smoothSolver:  Solving for Uy, Initial residual = 3.91864e-05, Final residual = 1.23734e-08, No Iterations 1
DICPCG:  Solving for p, Initial residual = 0.000467323, Final residual = 2.23861e-05, No Iterations 87
time step continuity errors : sum local = 4.75938e-13, global = 7.90081e-14, cumulative = 4.04959e-10
DICPCG:  Solving for p, Initial residual = 0.000468111, Final residual = 9.86604e-07, No Iterations 207
time step continuity errors : sum local = 2.09743e-14, global = -5.56411e-17, cumulative = 4.04958e-10
ExecutionTime = 412 s  ClockTime = 413 s

End

