/*---------------------------------------------------------------------------*\
  =========                 |
  \\      /  F ield         | OpenFOAM: The Open Source CFD Toolbox
   \\    /   O peration     | Website:  https://openfoam.org
    \\  /    A nd           | Version:  7
     \\/     M anipulation  |
\*---------------------------------------------------------------------------*/
Build  : 7-49b2b3b8b082
Exec   : icoFoam
Date   : May 14 2021
Time   : 16:04:06
Host   : "c402-131.stampede2.tacc.utexas.edu"
PID    : 194111
I/O    : uncollated
Case   : /scratch/07958/rbais/COE347/finalProject/box2
nProcs : 1
sigFpe : Enabling floating point exception trapping (FOAM_SIGFPE).
fileModificationChecking : Monitoring run-time modified files using timeStampMaster (fileModificationSkew 10)
allowSystemOperations : Allowing user-supplied system call operations

// * * * * * * * * * * * * * * * * * * * * * * * * * * * * * * * * * * * * * //
Create time

Create mesh for time = 0

Reading transportProperties

Reading field p

Reading field U

Reading/calculating face flux field phi


Starting time loop

Time = 0.05

Courant Number mean: 0.0148433 max: 0.313146
smoothSolver:  Solving for Ux, Initial residual = 1, Final residual = 9.6924e-06, No Iterations 54
smoothSolver:  Solving for Uy, Initial residual = 0, Final residual = 0, No Iterations 0
DICPCG:  Solving for p, Initial residual = 1, Final residual = 0.0482972, No Iterations 664
time step continuity errors : sum local = 1.32682e-07, global = 1.18388e-09, cumulative = 1.18388e-09
DICPCG:  Solving for p, Initial residual = 0.698702, Final residual = 9.95013e-07, No Iterations 946
time step continuity errors : sum local = 1.44627e-11, global = 7.86469e-14, cumulative = 1.18396e-09
ExecutionTime = 20.71 s  ClockTime = 21 s

Time = 0.1

Courant Number mean: 0.0148666 max: 0.40511
smoothSolver:  Solving for Ux, Initial residual = 0.136728, Final residual = 9.83784e-06, No Iterations 36
smoothSolver:  Solving for Uy, Initial residual = 0.254947, Final residual = 9.64003e-06, No Iterations 36
DICPCG:  Solving for p, Initial residual = 0.184339, Final residual = 0.00911696, No Iterations 355
time step continuity errors : sum local = 7.67995e-07, global = 3.70787e-08, cumulative = 3.82627e-08
DICPCG:  Solving for p, Initial residual = 0.127263, Final residual = 9.97251e-07, No Iterations 875
time step continuity errors : sum local = 1.09767e-10, global = -1.34546e-12, cumulative = 3.82614e-08
ExecutionTime = 35.4 s  ClockTime = 36 s

Time = 0.15

Courant Number mean: 0.0150086 max: 0.582498
smoothSolver:  Solving for Ux, Initial residual = 0.141673, Final residual = 9.7168e-06, No Iterations 37
smoothSolver:  Solving for Uy, Initial residual = 0.202179, Final residual = 9.05016e-06, No Iterations 35
DICPCG:  Solving for p, Initial residual = 0.331912, Final residual = 0.0162408, No Iterations 211
time step continuity errors : sum local = 9.34813e-07, global = -1.07045e-08, cumulative = 2.75569e-08
DICPCG:  Solving for p, Initial residual = 0.313126, Final residual = 9.81618e-07, No Iterations 842
time step continuity errors : sum local = 4.15646e-11, global = 4.41975e-13, cumulative = 2.75573e-08
ExecutionTime = 47.77 s  ClockTime = 48 s

Time = 0.2

Courant Number mean: 0.0149454 max: 0.407725
smoothSolver:  Solving for Ux, Initial residual = 0.0473558, Final residual = 8.40333e-06, No Iterations 31
smoothSolver:  Solving for Uy, Initial residual = 0.0593105, Final residual = 9.49861e-06, No Iterations 28
DICPCG:  Solving for p, Initial residual = 0.27747, Final residual = 0.0138162, No Iterations 265
time step continuity errors : sum local = 4.71355e-07, global = 1.63968e-08, cumulative = 4.39542e-08
DICPCG:  Solving for p, Initial residual = 0.318125, Final residual = 9.26373e-07, No Iterations 894
time step continuity errors : sum local = 1.95177e-11, global = 4.49691e-14, cumulative = 4.39542e-08
ExecutionTime = 60.88 s  ClockTime = 61 s

Time = 0.25

Courant Number mean: 0.0149535 max: 0.402411
smoothSolver:  Solving for Ux, Initial residual = 0.018131, Final residual = 8.37767e-06, No Iterations 31
smoothSolver:  Solving for Uy, Initial residual = 0.0245509, Final residual = 9.18697e-06, No Iterations 28
DICPCG:  Solving for p, Initial residual = 0.389819, Final residual = 0.0191036, No Iterations 204
time step continuity errors : sum local = 2.64287e-07, global = -3.76279e-09, cumulative = 4.01914e-08
DICPCG:  Solving for p, Initial residual = 0.454193, Final residual = 9.81311e-07, No Iterations 890
time step continuity errors : sum local = 8.52501e-12, global = 1.4616e-14, cumulative = 4.01914e-08
ExecutionTime = 73.26 s  ClockTime = 73 s

Time = 0.3

Courant Number mean: 0.0149391 max: 0.365709
smoothSolver:  Solving for Ux, Initial residual = 0.0097218, Final residual = 9.71379e-06, No Iterations 27
smoothSolver:  Solving for Uy, Initial residual = 0.0159159, Final residual = 9.98584e-06, No Iterations 23
DICPCG:  Solving for p, Initial residual = 0.347458, Final residual = 0.01736, No Iterations 198
time step continuity errors : sum local = 1.56521e-07, global = 1.51908e-09, cumulative = 4.17105e-08
DICPCG:  Solving for p, Initial residual = 0.299014, Final residual = 9.46625e-07, No Iterations 877
time step continuity errors : sum local = 7.44676e-12, global = 3.59782e-14, cumulative = 4.17106e-08
ExecutionTime = 85.23 s  ClockTime = 85 s

Time = 0.35

Courant Number mean: 0.0149341 max: 0.36119
smoothSolver:  Solving for Ux, Initial residual = 0.00458078, Final residual = 9.96251e-06, No Iterations 25
smoothSolver:  Solving for Uy, Initial residual = 0.00768308, Final residual = 9.02219e-06, No Iterations 23
DICPCG:  Solving for p, Initial residual = 0.452648, Final residual = 0.0225716, No Iterations 168
time step continuity errors : sum local = 1.00311e-07, global = -5.52579e-10, cumulative = 4.1158e-08
DICPCG:  Solving for p, Initial residual = 0.269088, Final residual = 9.98342e-07, No Iterations 832
time step continuity errors : sum local = 5.64542e-12, global = -7.93637e-15, cumulative = 4.1158e-08
ExecutionTime = 96.42 s  ClockTime = 97 s

Time = 0.4

Courant Number mean: 0.014927 max: 0.347559
smoothSolver:  Solving for Ux, Initial residual = 0.00402138, Final residual = 9.97702e-06, No Iterations 24
smoothSolver:  Solving for Uy, Initial residual = 0.00795828, Final residual = 8.86205e-06, No Iterations 21
DICPCG:  Solving for p, Initial residual = 0.318456, Final residual = 0.0158125, No Iterations 201
time step continuity errors : sum local = 6.5672e-08, global = 3.57247e-10, cumulative = 4.15152e-08
DICPCG:  Solving for p, Initial residual = 0.252057, Final residual = 9.5337e-07, No Iterations 873
time step continuity errors : sum local = 3.84675e-12, global = 2.19828e-14, cumulative = 4.15152e-08
ExecutionTime = 108.25 s  ClockTime = 108 s

Time = 0.45

Courant Number mean: 0.0149217 max: 0.338485
smoothSolver:  Solving for Ux, Initial residual = 0.00287277, Final residual = 8.99108e-06, No Iterations 23
smoothSolver:  Solving for Uy, Initial residual = 0.00570299, Final residual = 9.16062e-06, No Iterations 20
DICPCG:  Solving for p, Initial residual = 0.381383, Final residual = 0.018929, No Iterations 168
time step continuity errors : sum local = 4.73944e-08, global = -9.28541e-11, cumulative = 4.14224e-08
DICPCG:  Solving for p, Initial residual = 0.176535, Final residual = 9.86396e-07, No Iterations 825
time step continuity errors : sum local = 4.07995e-12, global = 1.59228e-14, cumulative = 4.14224e-08
ExecutionTime = 119.22 s  ClockTime = 119 s

Time = 0.5

Courant Number mean: 0.0149162 max: 0.327686
smoothSolver:  Solving for Ux, Initial residual = 0.00256644, Final residual = 9.61233e-06, No Iterations 22
smoothSolver:  Solving for Uy, Initial residual = 0.00528457, Final residual = 8.54283e-06, No Iterations 19
DICPCG:  Solving for p, Initial residual = 0.233509, Final residual = 0.0114662, No Iterations 196
time step continuity errors : sum local = 3.39549e-08, global = 1.35841e-10, cumulative = 4.15582e-08
DICPCG:  Solving for p, Initial residual = 0.239391, Final residual = 9.77975e-07, No Iterations 867
time step continuity errors : sum local = 2.19396e-12, global = 4.17813e-14, cumulative = 4.15583e-08
ExecutionTime = 130.85 s  ClockTime = 131 s

Time = 0.55

Courant Number mean: 0.0149114 max: 0.318908
smoothSolver:  Solving for Ux, Initial residual = 0.0021256, Final residual = 9.22928e-06, No Iterations 21
smoothSolver:  Solving for Uy, Initial residual = 0.00450511, Final residual = 9.33414e-06, No Iterations 18
DICPCG:  Solving for p, Initial residual = 0.24358, Final residual = 0.0120758, No Iterations 163
time step continuity errors : sum local = 2.58459e-08, global = -1.27196e-11, cumulative = 4.15456e-08
DICPCG:  Solving for p, Initial residual = 0.125134, Final residual = 9.62398e-07, No Iterations 856
time step continuity errors : sum local = 3.09561e-12, global = -1.03534e-14, cumulative = 4.15456e-08
ExecutionTime = 141.98 s  ClockTime = 142 s

Time = 0.6

Courant Number mean: 0.0149067 max: 0.309839
smoothSolver:  Solving for Ux, Initial residual = 0.00192508, Final residual = 8.41573e-06, No Iterations 21
smoothSolver:  Solving for Uy, Initial residual = 0.00418023, Final residual = 9.74548e-06, No Iterations 17
DICPCG:  Solving for p, Initial residual = 0.157817, Final residual = 0.00779611, No Iterations 156
time step continuity errors : sum local = 1.93859e-08, global = 4.59997e-11, cumulative = 4.15916e-08
DICPCG:  Solving for p, Initial residual = 0.15346, Final residual = 9.95237e-07, No Iterations 824
time step continuity errors : sum local = 1.96055e-12, global = -7.32465e-15, cumulative = 4.15915e-08
ExecutionTime = 152.76 s  ClockTime = 153 s

Time = 0.65

Courant Number mean: 0.0149023 max: 0.306352
smoothSolver:  Solving for Ux, Initial residual = 0.00169206, Final residual = 8.48202e-06, No Iterations 20
smoothSolver:  Solving for Uy, Initial residual = 0.00378448, Final residual = 8.52274e-06, No Iterations 17
DICPCG:  Solving for p, Initial residual = 0.149619, Final residual = 0.00729109, No Iterations 174
time step continuity errors : sum local = 1.46776e-08, global = -8.09577e-12, cumulative = 4.15834e-08
DICPCG:  Solving for p, Initial residual = 0.085092, Final residual = 9.83671e-07, No Iterations 808
time step continuity errors : sum local = 2.69804e-12, global = -5.60513e-15, cumulative = 4.15834e-08
ExecutionTime = 163.51 s  ClockTime = 164 s

Time = 0.7

Courant Number mean: 0.014898 max: 0.304176
smoothSolver:  Solving for Ux, Initial residual = 0.00155686, Final residual = 9.42281e-06, No Iterations 19
smoothSolver:  Solving for Uy, Initial residual = 0.00356105, Final residual = 9.31152e-06, No Iterations 16
DICPCG:  Solving for p, Initial residual = 0.10644, Final residual = 0.00531791, No Iterations 190
time step continuity errors : sum local = 1.1751e-08, global = 4.29763e-11, cumulative = 4.16264e-08
DICPCG:  Solving for p, Initial residual = 0.0948643, Final residual = 9.55114e-07, No Iterations 819
time step continuity errors : sum local = 1.81582e-12, global = 1.28083e-14, cumulative = 4.16264e-08
ExecutionTime = 174.46 s  ClockTime = 175 s

Time = 0.75

Courant Number mean: 0.0148941 max: 0.301928
smoothSolver:  Solving for Ux, Initial residual = 0.00139741, Final residual = 9.89897e-06, No Iterations 18
smoothSolver:  Solving for Uy, Initial residual = 0.00328851, Final residual = 8.60085e-06, No Iterations 16
DICPCG:  Solving for p, Initial residual = 0.0940242, Final residual = 0.00468532, No Iterations 190
time step continuity errors : sum local = 9.23455e-09, global = -1.13961e-11, cumulative = 4.1615e-08
DICPCG:  Solving for p, Initial residual = 0.0584532, Final residual = 9.84407e-07, No Iterations 792
time step continuity errors : sum local = 2.3393e-12, global = 4.35174e-14, cumulative = 4.16151e-08
ExecutionTime = 185.1 s  ClockTime = 185 s

Time = 0.8

Courant Number mean: 0.0148902 max: 0.299572
smoothSolver:  Solving for Ux, Initial residual = 0.00130729, Final residual = 9.17611e-06, No Iterations 18
smoothSolver:  Solving for Uy, Initial residual = 0.00310816, Final residual = 9.59126e-06, No Iterations 15
DICPCG:  Solving for p, Initial residual = 0.0723442, Final residual = 0.00359164, No Iterations 195
time step continuity errors : sum local = 7.40878e-09, global = 1.81205e-11, cumulative = 4.16332e-08
DICPCG:  Solving for p, Initial residual = 0.0598355, Final residual = 9.92946e-07, No Iterations 839
time step continuity errors : sum local = 1.90005e-12, global = -1.91061e-15, cumulative = 4.16332e-08
ExecutionTime = 196.24 s  ClockTime = 196 s

Time = 0.85

Courant Number mean: 0.0148866 max: 0.297186
smoothSolver:  Solving for Ux, Initial residual = 0.00120169, Final residual = 9.90639e-06, No Iterations 17
smoothSolver:  Solving for Uy, Initial residual = 0.00294686, Final residual = 8.8378e-06, No Iterations 15
DICPCG:  Solving for p, Initial residual = 0.0629481, Final residual = 0.00313796, No Iterations 193
time step continuity errors : sum local = 6.01105e-09, global = -7.95313e-12, cumulative = 4.16252e-08
DICPCG:  Solving for p, Initial residual = 0.0415961, Final residual = 9.87582e-07, No Iterations 792
time step continuity errors : sum local = 2.16794e-12, global = 1.17188e-14, cumulative = 4.16253e-08
ExecutionTime = 206.88 s  ClockTime = 207 s

Time = 0.9

Courant Number mean: 0.014883 max: 0.294748
smoothSolver:  Solving for Ux, Initial residual = 0.00113343, Final residual = 9.24041e-06, No Iterations 17
smoothSolver:  Solving for Uy, Initial residual = 0.002812, Final residual = 8.23059e-06, No Iterations 15
DICPCG:  Solving for p, Initial residual = 0.050119, Final residual = 0.00250099, No Iterations 201
time step continuity errors : sum local = 4.91949e-09, global = 1.14924e-11, cumulative = 4.16368e-08
DICPCG:  Solving for p, Initial residual = 0.0398141, Final residual = 9.82923e-07, No Iterations 817
time step continuity errors : sum local = 1.83456e-12, global = 1.30335e-14, cumulative = 4.16368e-08
ExecutionTime = 217.86 s  ClockTime = 218 s

Time = 0.95

Courant Number mean: 0.0148796 max: 0.292313
smoothSolver:  Solving for Ux, Initial residual = 0.00105628, Final residual = 8.39522e-06, No Iterations 17
smoothSolver:  Solving for Uy, Initial residual = 0.00269178, Final residual = 9.2856e-06, No Iterations 14
DICPCG:  Solving for p, Initial residual = 0.0440854, Final residual = 0.00216392, No Iterations 195
time step continuity errors : sum local = 4.03456e-09, global = -6.99503e-12, cumulative = 4.16298e-08
DICPCG:  Solving for p, Initial residual = 0.0296319, Final residual = 9.80965e-07, No Iterations 796
time step continuity errors : sum local = 2.02203e-12, global = 1.54206e-15, cumulative = 4.16298e-08
ExecutionTime = 228.55 s  ClockTime = 229 s

Time = 1

Courant Number mean: 0.0148763 max: 0.289868
smoothSolver:  Solving for Ux, Initial residual = 0.00100489, Final residual = 9.541e-06, No Iterations 16
smoothSolver:  Solving for Uy, Initial residual = 0.00259366, Final residual = 8.81158e-06, No Iterations 14
DICPCG:  Solving for p, Initial residual = 0.0357137, Final residual = 0.00178039, No Iterations 208
time step continuity errors : sum local = 3.37799e-09, global = 6.9458e-12, cumulative = 4.16367e-08
DICPCG:  Solving for p, Initial residual = 0.0275073, Final residual = 9.86871e-07, No Iterations 807
time step continuity errors : sum local = 1.8027e-12, global = 2.34339e-14, cumulative = 4.16367e-08
ExecutionTime = 241.91 s  ClockTime = 242 s

Time = 1.05

Courant Number mean: 0.0148731 max: 0.287456
smoothSolver:  Solving for Ux, Initial residual = 0.00094277, Final residual = 8.80743e-06, No Iterations 16
smoothSolver:  Solving for Uy, Initial residual = 0.00248798, Final residual = 8.14089e-06, No Iterations 14
DICPCG:  Solving for p, Initial residual = 0.0318659, Final residual = 0.00158264, No Iterations 193
time step continuity errors : sum local = 2.87869e-09, global = -6.32663e-12, cumulative = 4.16304e-08
DICPCG:  Solving for p, Initial residual = 0.0215335, Final residual = 9.69653e-07, No Iterations 793
time step continuity errors : sum local = 1.89935e-12, global = -5.11587e-16, cumulative = 4.16304e-08
ExecutionTime = 252.56 s  ClockTime = 253 s

Time = 1.1

Courant Number mean: 0.01487 max: 0.285055
smoothSolver:  Solving for Ux, Initial residual = 0.00090288, Final residual = 8.27726e-06, No Iterations 16
smoothSolver:  Solving for Uy, Initial residual = 0.00241314, Final residual = 9.57132e-06, No Iterations 13
DICPCG:  Solving for p, Initial residual = 0.0262876, Final residual = 0.00128437, No Iterations 212
time step continuity errors : sum local = 2.36384e-09, global = 4.46228e-12, cumulative = 4.16349e-08
DICPCG:  Solving for p, Initial residual = 0.0195554, Final residual = 9.79781e-07, No Iterations 802
time step continuity errors : sum local = 1.75119e-12, global = 2.51083e-14, cumulative = 4.16349e-08
ExecutionTime = 263.42 s  ClockTime = 264 s

Time = 1.15

Courant Number mean: 0.014867 max: 0.282698
smoothSolver:  Solving for Ux, Initial residual = 0.000855175, Final residual = 9.40298e-06, No Iterations 15
smoothSolver:  Solving for Uy, Initial residual = 0.0023321, Final residual = 8.93312e-06, No Iterations 13
DICPCG:  Solving for p, Initial residual = 0.0237508, Final residual = 0.00116819, No Iterations 200
time step continuity errors : sum local = 2.0802e-09, global = -6.85648e-12, cumulative = 4.1628e-08
DICPCG:  Solving for p, Initial residual = 0.0160773, Final residual = 9.86027e-07, No Iterations 758
time step continuity errors : sum local = 1.85659e-12, global = 3.07243e-14, cumulative = 4.16281e-08
ExecutionTime = 273.7 s  ClockTime = 274 s

Time = 1.2

Courant Number mean: 0.0148641 max: 0.28038
smoothSolver:  Solving for Ux, Initial residual = 0.000819352, Final residual = 8.88838e-06, No Iterations 15
smoothSolver:  Solving for Uy, Initial residual = 0.00225852, Final residual = 8.52771e-06, No Iterations 13
DICPCG:  Solving for p, Initial residual = 0.0201652, Final residual = 0.000996227, No Iterations 213
time step continuity errors : sum local = 1.78369e-09, global = 5.373e-13, cumulative = 4.16286e-08
DICPCG:  Solving for p, Initial residual = 0.0144873, Final residual = 9.87688e-07, No Iterations 796
time step continuity errors : sum local = 1.72366e-12, global = 2.11158e-14, cumulative = 4.16286e-08
ExecutionTime = 285.29 s  ClockTime = 286 s

Time = 1.25

Courant Number mean: 0.0148612 max: 0.278103
smoothSolver:  Solving for Ux, Initial residual = 0.000781881, Final residual = 8.36772e-06, No Iterations 15
smoothSolver:  Solving for Uy, Initial residual = 0.00219428, Final residual = 9.93735e-06, No Iterations 12
DICPCG:  Solving for p, Initial residual = 0.0184053, Final residual = 0.000915353, No Iterations 204
time step continuity errors : sum local = 1.59583e-09, global = -6.01875e-12, cumulative = 4.16226e-08
DICPCG:  Solving for p, Initial residual = 0.0122489, Final residual = 9.79881e-07, No Iterations 785
time step continuity errors : sum local = 1.78743e-12, global = 9.41886e-15, cumulative = 4.16226e-08
ExecutionTime = 295.83 s  ClockTime = 296 s

Time = 1.3

Courant Number mean: 0.0148585 max: 0.275871
smoothSolver:  Solving for Ux, Initial residual = 0.000752956, Final residual = 9.68247e-06, No Iterations 14
smoothSolver:  Solving for Uy, Initial residual = 0.00213691, Final residual = 9.53491e-06, No Iterations 12
DICPCG:  Solving for p, Initial residual = 0.0160537, Final residual = 0.000797675, No Iterations 217
time step continuity errors : sum local = 1.39591e-09, global = -5.92963e-13, cumulative = 4.1622e-08
DICPCG:  Solving for p, Initial residual = 0.0113562, Final residual = 9.75981e-07, No Iterations 789
time step continuity errors : sum local = 1.67444e-12, global = 2.32638e-14, cumulative = 4.16221e-08
ExecutionTime = 306.54 s  ClockTime = 307 s

Time = 1.35

Courant Number mean: 0.0148558 max: 0.273696
smoothSolver:  Solving for Ux, Initial residual = 0.000718702, Final residual = 9.2042e-06, No Iterations 14
smoothSolver:  Solving for Uy, Initial residual = 0.00206884, Final residual = 9.01103e-06, No Iterations 12
DICPCG:  Solving for p, Initial residual = 0.0148921, Final residual = 0.000730775, No Iterations 206
time step continuity errors : sum local = 1.24693e-09, global = -5.91282e-12, cumulative = 4.16161e-08
DICPCG:  Solving for p, Initial residual = 0.00965169, Final residual = 9.82095e-07, No Iterations 783
time step continuity errors : sum local = 1.74386e-12, global = 7.58387e-15, cumulative = 4.16161e-08
ExecutionTime = 317.09 s  ClockTime = 317 s

Time = 1.4

Courant Number mean: 0.0148531 max: 0.271565
smoothSolver:  Solving for Ux, Initial residual = 0.000695431, Final residual = 8.74148e-06, No Iterations 14
smoothSolver:  Solving for Uy, Initial residual = 0.00202409, Final residual = 8.64604e-06, No Iterations 12
DICPCG:  Solving for p, Initial residual = 0.0131956, Final residual = 0.000649011, No Iterations 216
time step continuity errors : sum local = 1.11124e-09, global = -4.91931e-13, cumulative = 4.16157e-08
DICPCG:  Solving for p, Initial residual = 0.00891159, Final residual = 9.92258e-07, No Iterations 782
time step continuity errors : sum local = 1.67184e-12, global = 2.43832e-14, cumulative = 4.16157e-08
ExecutionTime = 327.71 s  ClockTime = 328 s

Time = 1.45

Courant Number mean: 0.0148505 max: 0.269477
smoothSolver:  Solving for Ux, Initial residual = 0.000668151, Final residual = 8.34041e-06, No Iterations 14
smoothSolver:  Solving for Uy, Initial residual = 0.00197131, Final residual = 8.20605e-06, No Iterations 12
DICPCG:  Solving for p, Initial residual = 0.0124146, Final residual = 0.000620709, No Iterations 216
time step continuity errors : sum local = 1.04055e-09, global = -5.28403e-12, cumulative = 4.16104e-08
DICPCG:  Solving for p, Initial residual = 0.00776782, Final residual = 9.94984e-07, No Iterations 779
time step continuity errors : sum local = 1.72492e-12, global = 5.27695e-15, cumulative = 4.16104e-08
ExecutionTime = 338.3 s  ClockTime = 339 s

Time = 1.5

Courant Number mean: 0.014848 max: 0.267437
smoothSolver:  Solving for Ux, Initial residual = 0.000647089, Final residual = 9.75254e-06, No Iterations 13
smoothSolver:  Solving for Uy, Initial residual = 0.00192979, Final residual = 9.83722e-06, No Iterations 11
DICPCG:  Solving for p, Initial residual = 0.0114302, Final residual = 0.000563829, No Iterations 218
time step continuity errors : sum local = 9.46316e-10, global = -8.70698e-13, cumulative = 4.16095e-08
DICPCG:  Solving for p, Initial residual = 0.00777271, Final residual = 9.9033e-07, No Iterations 784
time step continuity errors : sum local = 1.64234e-12, global = 2.4973e-14, cumulative = 4.16096e-08
ExecutionTime = 349.06 s  ClockTime = 349 s

Time = 1.55

Courant Number mean: 0.0148456 max: 0.26546
smoothSolver:  Solving for Ux, Initial residual = 0.000620737, Final residual = 9.36839e-06, No Iterations 13
smoothSolver:  Solving for Uy, Initial residual = 0.00186997, Final residual = 9.45842e-06, No Iterations 11
DICPCG:  Solving for p, Initial residual = 0.0109168, Final residual = 0.000541245, No Iterations 220
time step continuity errors : sum local = 8.89643e-10, global = -5.26412e-12, cumulative = 4.16043e-08
DICPCG:  Solving for p, Initial residual = 0.00683005, Final residual = 9.70548e-07, No Iterations 746
time step continuity errors : sum local = 1.64573e-12, global = -5.56599e-15, cumulative = 4.16043e-08
ExecutionTime = 359.49 s  ClockTime = 360 s

Time = 1.6

Courant Number mean: 0.0148431 max: 0.263524
smoothSolver:  Solving for Ux, Initial residual = 0.000603511, Final residual = 8.95553e-06, No Iterations 13
smoothSolver:  Solving for Uy, Initial residual = 0.00183815, Final residual = 9.082e-06, No Iterations 11
DICPCG:  Solving for p, Initial residual = 0.00998981, Final residual = 0.00049259, No Iterations 213
time step continuity errors : sum local = 8.10913e-10, global = -5.15598e-13, cumulative = 4.16038e-08
DICPCG:  Solving for p, Initial residual = 0.00647163, Final residual = 9.95903e-07, No Iterations 781
time step continuity errors : sum local = 1.62268e-12, global = 2.21177e-14, cumulative = 4.16038e-08
ExecutionTime = 370.18 s  ClockTime = 370 s

Time = 1.65

Courant Number mean: 0.0148408 max: 0.261631
smoothSolver:  Solving for Ux, Initial residual = 0.000582814, Final residual = 8.60957e-06, No Iterations 13
smoothSolver:  Solving for Uy, Initial residual = 0.00179309, Final residual = 8.71617e-06, No Iterations 11
DICPCG:  Solving for p, Initial residual = 0.00954112, Final residual = 0.000468194, No Iterations 222
time step continuity errors : sum local = 7.5744e-10, global = -4.18718e-12, cumulative = 4.15996e-08
DICPCG:  Solving for p, Initial residual = 0.00587374, Final residual = 9.63659e-07, No Iterations 597
time step continuity errors : sum local = 1.60235e-12, global = -5.59828e-14, cumulative = 4.15995e-08
ExecutionTime = 379.13 s  ClockTime = 379 s

Time = 1.7

Courant Number mean: 0.0148385 max: 0.259781
smoothSolver:  Solving for Ux, Initial residual = 0.000566664, Final residual = 8.2541e-06, No Iterations 13
smoothSolver:  Solving for Uy, Initial residual = 0.0017617, Final residual = 8.4064e-06, No Iterations 11
DICPCG:  Solving for p, Initial residual = 0.0089493, Final residual = 0.00044694, No Iterations 216
time step continuity errors : sum local = 7.22973e-10, global = -9.42241e-13, cumulative = 4.15986e-08
DICPCG:  Solving for p, Initial residual = 0.00566367, Final residual = 9.72253e-07, No Iterations 780
time step continuity errors : sum local = 1.55704e-12, global = 1.86531e-14, cumulative = 4.15986e-08
ExecutionTime = 389.85 s  ClockTime = 390 s

Time = 1.75

Courant Number mean: 0.0148362 max: 0.257972
smoothSolver:  Solving for Ux, Initial residual = 0.000548579, Final residual = 9.80384e-06, No Iterations 12
smoothSolver:  Solving for Uy, Initial residual = 0.00172153, Final residual = 8.07924e-06, No Iterations 11
DICPCG:  Solving for p, Initial residual = 0.00872777, Final residual = 0.000431326, No Iterations 224
time step continuity errors : sum local = 6.86765e-10, global = -3.764e-12, cumulative = 4.15949e-08
DICPCG:  Solving for p, Initial residual = 0.0055678, Final residual = 9.82238e-07, No Iterations 774
time step continuity errors : sum local = 1.60307e-12, global = 8.04493e-15, cumulative = 4.15949e-08
ExecutionTime = 400.56 s  ClockTime = 401 s

Time = 1.8

Courant Number mean: 0.0148339 max: 0.256222
smoothSolver:  Solving for Ux, Initial residual = 0.000531218, Final residual = 9.45984e-06, No Iterations 12
smoothSolver:  Solving for Uy, Initial residual = 0.00168018, Final residual = 9.89569e-06, No Iterations 10
DICPCG:  Solving for p, Initial residual = 0.00838671, Final residual = 0.000414392, No Iterations 227
time step continuity errors : sum local = 6.5815e-10, global = -2.22081e-12, cumulative = 4.15926e-08
DICPCG:  Solving for p, Initial residual = 0.00542305, Final residual = 9.53125e-07, No Iterations 781
time step continuity errors : sum local = 1.49623e-12, global = 1.93821e-14, cumulative = 4.15927e-08
ExecutionTime = 411.28 s  ClockTime = 412 s

Time = 1.85

Courant Number mean: 0.0148318 max: 0.25451
smoothSolver:  Solving for Ux, Initial residual = 0.000516104, Final residual = 9.13173e-06, No Iterations 12
smoothSolver:  Solving for Uy, Initial residual = 0.00164773, Final residual = 9.57428e-06, No Iterations 10
DICPCG:  Solving for p, Initial residual = 0.00808729, Final residual = 0.000397573, No Iterations 224
time step continuity errors : sum local = 6.22592e-10, global = -3.90082e-12, cumulative = 4.15888e-08
DICPCG:  Solving for p, Initial residual = 0.00503225, Final residual = 9.99146e-07, No Iterations 767
time step continuity errors : sum local = 1.59917e-12, global = 1.39039e-14, cumulative = 4.15888e-08
ExecutionTime = 421.76 s  ClockTime = 422 s

Time = 1.9

Courant Number mean: 0.0148296 max: 0.252838
smoothSolver:  Solving for Ux, Initial residual = 0.000502683, Final residual = 8.80907e-06, No Iterations 12
smoothSolver:  Solving for Uy, Initial residual = 0.00161856, Final residual = 9.28674e-06, No Iterations 10
DICPCG:  Solving for p, Initial residual = 0.00768092, Final residual = 0.000383842, No Iterations 225
time step continuity errors : sum local = 6.00406e-10, global = -1.43952e-12, cumulative = 4.15873e-08
DICPCG:  Solving for p, Initial residual = 0.0048471, Final residual = 9.94407e-07, No Iterations 778
time step continuity errors : sum local = 1.54147e-12, global = 1.60023e-14, cumulative = 4.15874e-08
ExecutionTime = 432.37 s  ClockTime = 433 s

Time = 1.95

Courant Number mean: 0.0148275 max: 0.2512
smoothSolver:  Solving for Ux, Initial residual = 0.00048856, Final residual = 8.51998e-06, No Iterations 12
smoothSolver:  Solving for Uy, Initial residual = 0.00158611, Final residual = 8.95449e-06, No Iterations 10
DICPCG:  Solving for p, Initial residual = 0.00747165, Final residual = 0.000362029, No Iterations 226
time step continuity errors : sum local = 5.58537e-10, global = -3.62491e-12, cumulative = 4.15837e-08
DICPCG:  Solving for p, Initial residual = 0.00454881, Final residual = 9.85449e-07, No Iterations 770
time step continuity errors : sum local = 1.55184e-12, global = 1.61096e-14, cumulative = 4.15837e-08
ExecutionTime = 442.89 s  ClockTime = 443 s

Time = 2

Courant Number mean: 0.0148254 max: 0.2496
smoothSolver:  Solving for Ux, Initial residual = 0.000476496, Final residual = 8.2308e-06, No Iterations 12
smoothSolver:  Solving for Uy, Initial residual = 0.00156018, Final residual = 8.71968e-06, No Iterations 10
DICPCG:  Solving for p, Initial residual = 0.00715913, Final residual = 0.000354258, No Iterations 223
time step continuity errors : sum local = 5.45865e-10, global = -1.28548e-12, cumulative = 4.15825e-08
DICPCG:  Solving for p, Initial residual = 0.00450397, Final residual = 9.57846e-07, No Iterations 777
time step continuity errors : sum local = 1.46455e-12, global = 1.39277e-14, cumulative = 4.15825e-08
ExecutionTime = 455.95 s  ClockTime = 456 s

Time = 2.05

Courant Number mean: 0.0148234 max: 0.248033
smoothSolver:  Solving for Ux, Initial residual = 0.000463611, Final residual = 9.88272e-06, No Iterations 11
smoothSolver:  Solving for Uy, Initial residual = 0.00152928, Final residual = 8.41375e-06, No Iterations 10
DICPCG:  Solving for p, Initial residual = 0.00718746, Final residual = 0.000359356, No Iterations 228
time step continuity errors : sum local = 5.465e-10, global = -3.302e-12, cumulative = 4.15792e-08
DICPCG:  Solving for p, Initial residual = 0.00473018, Final residual = 9.70538e-07, No Iterations 774
time step continuity errors : sum local = 1.50525e-12, global = 7.13178e-15, cumulative = 4.15792e-08
ExecutionTime = 466.51 s  ClockTime = 467 s

Time = 2.1

Courant Number mean: 0.0148214 max: 0.24652
smoothSolver:  Solving for Ux, Initial residual = 0.000449835, Final residual = 9.60502e-06, No Iterations 11
smoothSolver:  Solving for Uy, Initial residual = 0.00149269, Final residual = 8.22725e-06, No Iterations 10
DICPCG:  Solving for p, Initial residual = 0.00701862, Final residual = 0.000344279, No Iterations 227
time step continuity errors : sum local = 5.21698e-10, global = -2.41147e-12, cumulative = 4.15768e-08
DICPCG:  Solving for p, Initial residual = 0.00449903, Final residual = 9.78534e-07, No Iterations 775
time step continuity errors : sum local = 1.46924e-12, global = 1.10651e-14, cumulative = 4.15768e-08
ExecutionTime = 477.09 s  ClockTime = 477 s

Time = 2.15

Courant Number mean: 0.0148194 max: 0.245034
smoothSolver:  Solving for Ux, Initial residual = 0.000439309, Final residual = 9.31413e-06, No Iterations 11
smoothSolver:  Solving for Uy, Initial residual = 0.00146875, Final residual = 7.94695e-06, No Iterations 10
DICPCG:  Solving for p, Initial residual = 0.00681874, Final residual = 0.000338533, No Iterations 225
time step continuity errors : sum local = 5.07035e-10, global = -3.35912e-12, cumulative = 4.15734e-08
DICPCG:  Solving for p, Initial residual = 0.00430903, Final residual = 9.6949e-07, No Iterations 771
time step continuity errors : sum local = 1.47964e-12, global = 1.01351e-14, cumulative = 4.15734e-08
ExecutionTime = 487.58 s  ClockTime = 488 s

Time = 2.2

Courant Number mean: 0.0148174 max: 0.24358
smoothSolver:  Solving for Ux, Initial residual = 0.000429027, Final residual = 9.03675e-06, No Iterations 11
smoothSolver:  Solving for Uy, Initial residual = 0.00144501, Final residual = 9.94337e-06, No Iterations 9
DICPCG:  Solving for p, Initial residual = 0.00666388, Final residual = 0.000331089, No Iterations 226
time step continuity errors : sum local = 4.95114e-10, global = -1.56446e-12, cumulative = 4.15719e-08
DICPCG:  Solving for p, Initial residual = 0.00437456, Final residual = 9.74599e-07, No Iterations 777
time step continuity errors : sum local = 1.44762e-12, global = 1.45013e-14, cumulative = 4.15719e-08
ExecutionTime = 498.11 s  ClockTime = 498 s

Time = 2.25

Courant Number mean: 0.0148155 max: 0.242158
smoothSolver:  Solving for Ux, Initial residual = 0.000418272, Final residual = 8.78009e-06, No Iterations 11
smoothSolver:  Solving for Uy, Initial residual = 0.00141821, Final residual = 9.68641e-06, No Iterations 9
DICPCG:  Solving for p, Initial residual = 0.00663533, Final residual = 0.000330891, No Iterations 226
time step continuity errors : sum local = 4.88757e-10, global = -3.3327e-12, cumulative = 4.15686e-08
DICPCG:  Solving for p, Initial residual = 0.00420542, Final residual = 9.83212e-07, No Iterations 598
time step continuity errors : sum local = 1.47974e-12, global = 2.82624e-13, cumulative = 4.15688e-08
ExecutionTime = 506.89 s  ClockTime = 507 s

Time = 2.3

Courant Number mean: 0.0148136 max: 0.240765
smoothSolver:  Solving for Ux, Initial residual = 0.00040922, Final residual = 8.52522e-06, No Iterations 11
smoothSolver:  Solving for Uy, Initial residual = 0.00139777, Final residual = 9.45156e-06, No Iterations 9
DICPCG:  Solving for p, Initial residual = 0.00640951, Final residual = 0.0003204, No Iterations 223
time step continuity errors : sum local = 4.72859e-10, global = -8.37534e-13, cumulative = 4.1568e-08
DICPCG:  Solving for p, Initial residual = 0.00419007, Final residual = 9.61732e-07, No Iterations 775
time step continuity errors : sum local = 1.41027e-12, global = 1.10668e-14, cumulative = 4.1568e-08
ExecutionTime = 517.35 s  ClockTime = 518 s

Time = 2.35

Courant Number mean: 0.0148118 max: 0.239399
smoothSolver:  Solving for Ux, Initial residual = 0.000399367, Final residual = 8.29059e-06, No Iterations 11
smoothSolver:  Solving for Uy, Initial residual = 0.00137246, Final residual = 9.18236e-06, No Iterations 9
DICPCG:  Solving for p, Initial residual = 0.006333, Final residual = 0.000315573, No Iterations 228
time step continuity errors : sum local = 4.60016e-10, global = -3.55357e-12, cumulative = 4.15645e-08
DICPCG:  Solving for p, Initial residual = 0.00401033, Final residual = 9.64001e-07, No Iterations 591
time step continuity errors : sum local = 1.43129e-12, global = 1.20249e-13, cumulative = 4.15646e-08
ExecutionTime = 526.09 s  ClockTime = 526 s

Time = 2.4

Courant Number mean: 0.0148099 max: 0.238061
smoothSolver:  Solving for Ux, Initial residual = 0.000390953, Final residual = 8.05778e-06, No Iterations 11
smoothSolver:  Solving for Uy, Initial residual = 0.00135334, Final residual = 8.98e-06, No Iterations 9
DICPCG:  Solving for p, Initial residual = 0.00614597, Final residual = 0.000302428, No Iterations 223
time step continuity errors : sum local = 4.40514e-10, global = -1.04989e-12, cumulative = 4.15635e-08
DICPCG:  Solving for p, Initial residual = 0.00398761, Final residual = 9.77773e-07, No Iterations 774
time step continuity errors : sum local = 1.41587e-12, global = 9.98555e-15, cumulative = 4.15635e-08
ExecutionTime = 536.55 s  ClockTime = 537 s

Time = 2.45

Courant Number mean: 0.0148081 max: 0.236749
smoothSolver:  Solving for Ux, Initial residual = 0.000381833, Final residual = 9.78438e-06, No Iterations 10
smoothSolver:  Solving for Uy, Initial residual = 0.00132926, Final residual = 8.73154e-06, No Iterations 9
DICPCG:  Solving for p, Initial residual = 0.00636025, Final residual = 0.000307797, No Iterations 231
time step continuity errors : sum local = 4.43106e-10, global = -3.23199e-12, cumulative = 4.15603e-08
DICPCG:  Solving for p, Initial residual = 0.00442403, Final residual = 9.78543e-07, No Iterations 772
time step continuity errors : sum local = 1.43407e-12, global = 5.6591e-15, cumulative = 4.15603e-08
ExecutionTime = 547.04 s  ClockTime = 547 s

Time = 2.5

Courant Number mean: 0.0148064 max: 0.235484
smoothSolver:  Solving for Ux, Initial residual = 0.000371213, Final residual = 9.56896e-06, No Iterations 10
smoothSolver:  Solving for Uy, Initial residual = 0.00129775, Final residual = 8.57147e-06, No Iterations 9
DICPCG:  Solving for p, Initial residual = 0.00629726, Final residual = 0.000313784, No Iterations 226
time step continuity errors : sum local = 4.50057e-10, global = -2.40944e-12, cumulative = 4.15579e-08
DICPCG:  Solving for p, Initial residual = 0.00425255, Final residual = 9.54976e-07, No Iterations 773
time step continuity errors : sum local = 1.36003e-12, global = 8.0728e-15, cumulative = 4.15579e-08
ExecutionTime = 557.52 s  ClockTime = 558 s

Time = 2.55

Courant Number mean: 0.0148046 max: 0.234433
smoothSolver:  Solving for Ux, Initial residual = 0.000363965, Final residual = 9.31871e-06, No Iterations 10
smoothSolver:  Solving for Uy, Initial residual = 0.00128017, Final residual = 8.33536e-06, No Iterations 9
DICPCG:  Solving for p, Initial residual = 0.00614856, Final residual = 0.000303966, No Iterations 225
time step continuity errors : sum local = 4.31588e-10, global = -3.07884e-12, cumulative = 4.15548e-08
DICPCG:  Solving for p, Initial residual = 0.00411988, Final residual = 9.75511e-07, No Iterations 770
time step continuity errors : sum local = 1.40994e-12, global = 1.00315e-14, cumulative = 4.15548e-08
ExecutionTime = 567.93 s  ClockTime = 568 s

Time = 2.6

Courant Number mean: 0.0148029 max: 0.233607
smoothSolver:  Solving for Ux, Initial residual = 0.000356508, Final residual = 9.08583e-06, No Iterations 10
smoothSolver:  Solving for Uy, Initial residual = 0.00126179, Final residual = 8.17294e-06, No Iterations 9
DICPCG:  Solving for p, Initial residual = 0.00603384, Final residual = 0.000299867, No Iterations 222
time step continuity errors : sum local = 4.25247e-10, global = -1.5846e-12, cumulative = 4.15533e-08
DICPCG:  Solving for p, Initial residual = 0.00411331, Final residual = 9.895e-07, No Iterations 771
time step continuity errors : sum local = 1.39491e-12, global = 7.60161e-15, cumulative = 4.15533e-08
ExecutionTime = 578.33 s  ClockTime = 579 s

Time = 2.65

Courant Number mean: 0.0148012 max: 0.232789
smoothSolver:  Solving for Ux, Initial residual = 0.000348914, Final residual = 8.86384e-06, No Iterations 10
smoothSolver:  Solving for Uy, Initial residual = 0.00124138, Final residual = 7.95764e-06, No Iterations 9
DICPCG:  Solving for p, Initial residual = 0.00597797, Final residual = 0.000295604, No Iterations 226
time step continuity errors : sum local = 4.1461e-10, global = -3.16661e-12, cumulative = 4.15501e-08
DICPCG:  Solving for p, Initial residual = 0.00397877, Final residual = 9.96966e-07, No Iterations 590
time step continuity errors : sum local = 1.42384e-12, global = 2.41509e-13, cumulative = 4.15503e-08
ExecutionTime = 587.48 s  ClockTime = 588 s

Time = 2.7

Courant Number mean: 0.0147995 max: 0.231981
smoothSolver:  Solving for Ux, Initial residual = 0.000342258, Final residual = 8.64481e-06, No Iterations 10
smoothSolver:  Solving for Uy, Initial residual = 0.00122554, Final residual = 7.80814e-06, No Iterations 9
DICPCG:  Solving for p, Initial residual = 0.00587936, Final residual = 0.000291453, No Iterations 221
time step continuity errors : sum local = 4.0858e-10, global = -9.47771e-13, cumulative = 4.15494e-08
DICPCG:  Solving for p, Initial residual = 0.00401194, Final residual = 9.62384e-07, No Iterations 771
time step continuity errors : sum local = 1.34182e-12, global = 6.71441e-15, cumulative = 4.15494e-08
ExecutionTime = 598.02 s  ClockTime = 598 s

Time = 2.75

Courant Number mean: 0.0147979 max: 0.231182
smoothSolver:  Solving for Ux, Initial residual = 0.000335022, Final residual = 8.44055e-06, No Iterations 10
smoothSolver:  Solving for Uy, Initial residual = 0.00120538, Final residual = 9.89879e-06, No Iterations 8
DICPCG:  Solving for p, Initial residual = 0.00591119, Final residual = 0.000288813, No Iterations 231
time step continuity errors : sum local = 4.00357e-10, global = -3.42586e-12, cumulative = 4.1546e-08
DICPCG:  Solving for p, Initial residual = 0.00402533, Final residual = 9.75423e-07, No Iterations 593
time step continuity errors : sum local = 1.37695e-12, global = 1.88731e-13, cumulative = 4.15462e-08
ExecutionTime = 606.75 s  ClockTime = 607 s

Time = 2.8

Courant Number mean: 0.0147962 max: 0.230394
smoothSolver:  Solving for Ux, Initial residual = 0.00032863, Final residual = 8.23867e-06, No Iterations 10
smoothSolver:  Solving for Uy, Initial residual = 0.00119003, Final residual = 9.76451e-06, No Iterations 8
DICPCG:  Solving for p, Initial residual = 0.00585566, Final residual = 0.0002866, No Iterations 223
time step continuity errors : sum local = 3.97125e-10, global = -1.01323e-12, cumulative = 4.15451e-08
DICPCG:  Solving for p, Initial residual = 0.00405196, Final residual = 9.90251e-07, No Iterations 773
time step continuity errors : sum local = 1.36532e-12, global = 1.00619e-14, cumulative = 4.15452e-08
ExecutionTime = 617.21 s  ClockTime = 617 s

Time = 2.85

Courant Number mean: 0.0147946 max: 0.229616
smoothSolver:  Solving for Ux, Initial residual = 0.000321928, Final residual = 8.0484e-06, No Iterations 10
smoothSolver:  Solving for Uy, Initial residual = 0.0011709, Final residual = 9.5287e-06, No Iterations 8
DICPCG:  Solving for p, Initial residual = 0.00578516, Final residual = 0.000288443, No Iterations 229
time step continuity errors : sum local = 3.95389e-10, global = -3.18446e-12, cumulative = 4.1542e-08
DICPCG:  Solving for p, Initial residual = 0.00392753, Final residual = 9.91988e-07, No Iterations 589
time step continuity errors : sum local = 1.38355e-12, global = 7.86792e-14, cumulative = 4.1542e-08
ExecutionTime = 625.89 s  ClockTime = 626 s

Time = 2.9

Courant Number mean: 0.014793 max: 0.228846
smoothSolver:  Solving for Ux, Initial residual = 0.000316137, Final residual = 9.87144e-06, No Iterations 9
smoothSolver:  Solving for Uy, Initial residual = 0.0011569, Final residual = 9.35771e-06, No Iterations 8
DICPCG:  Solving for p, Initial residual = 0.00605342, Final residual = 0.000300364, No Iterations 226
time step continuity errors : sum local = 4.11561e-10, global = -1.21356e-12, cumulative = 4.15408e-08
DICPCG:  Solving for p, Initial residual = 0.00467437, Final residual = 9.92511e-07, No Iterations 773
time step continuity errors : sum local = 1.355e-12, global = 2.10133e-15, cumulative = 4.15408e-08
ExecutionTime = 636.34 s  ClockTime = 637 s

Time = 2.95

Courant Number mean: 0.0147915 max: 0.228094
smoothSolver:  Solving for Ux, Initial residual = 0.000306923, Final residual = 9.71178e-06, No Iterations 9
smoothSolver:  Solving for Uy, Initial residual = 0.00112376, Final residual = 9.17763e-06, No Iterations 8
DICPCG:  Solving for p, Initial residual = 0.0061345, Final residual = 0.000298361, No Iterations 226
time step continuity errors : sum local = 4.03059e-10, global = -4.03535e-12, cumulative = 4.15368e-08
DICPCG:  Solving for p, Initial residual = 0.0043392, Final residual = 9.67549e-07, No Iterations 770
time step continuity errors : sum local = 1.33124e-12, global = 7.57501e-15, cumulative = 4.15368e-08
ExecutionTime = 646.74 s  ClockTime = 647 s

Time = 3

Courant Number mean: 0.0147899 max: 0.227348
smoothSolver:  Solving for Ux, Initial residual = 0.000302665, Final residual = 9.48237e-06, No Iterations 9
smoothSolver:  Solving for Uy, Initial residual = 0.00111565, Final residual = 9.01841e-06, No Iterations 8
DICPCG:  Solving for p, Initial residual = 0.00589169, Final residual = 0.00029156, No Iterations 219
time step continuity errors : sum local = 3.94493e-10, global = -1.05801e-12, cumulative = 4.15358e-08
DICPCG:  Solving for p, Initial residual = 0.00433286, Final residual = 9.92752e-07, No Iterations 770
time step continuity errors : sum local = 1.33791e-12, global = 7.88014e-15, cumulative = 4.15358e-08
ExecutionTime = 659.54 s  ClockTime = 660 s

Time = 3.05

Courant Number mean: 0.0147884 max: 0.226611
smoothSolver:  Solving for Ux, Initial residual = 0.000296494, Final residual = 9.29028e-06, No Iterations 9
smoothSolver:  Solving for Uy, Initial residual = 0.00109666, Final residual = 8.82183e-06, No Iterations 8
DICPCG:  Solving for p, Initial residual = 0.00589281, Final residual = 0.000293841, No Iterations 226
time step continuity errors : sum local = 3.93281e-10, global = -3.08382e-12, cumulative = 4.15327e-08
DICPCG:  Solving for p, Initial residual = 0.00421576, Final residual = 9.87755e-07, No Iterations 588
time step continuity errors : sum local = 1.34549e-12, global = -1.07874e-13, cumulative = 4.15326e-08
ExecutionTime = 668.17 s  ClockTime = 668 s

Time = 3.1

Courant Number mean: 0.0147869 max: 0.225882
smoothSolver:  Solving for Ux, Initial residual = 0.000291706, Final residual = 9.0869e-06, No Iterations 9
smoothSolver:  Solving for Uy, Initial residual = 0.00108546, Final residual = 8.67735e-06, No Iterations 8
DICPCG:  Solving for p, Initial residual = 0.00581588, Final residual = 0.000287635, No Iterations 220
time step continuity errors : sum local = 3.84974e-10, global = -1.5498e-12, cumulative = 4.1531e-08
DICPCG:  Solving for p, Initial residual = 0.00427455, Final residual = 9.88938e-07, No Iterations 770
time step continuity errors : sum local = 1.31766e-12, global = 8.21316e-15, cumulative = 4.1531e-08
ExecutionTime = 678.53 s  ClockTime = 679 s

Time = 3.15

Courant Number mean: 0.0147854 max: 0.225162
smoothSolver:  Solving for Ux, Initial residual = 0.000286141, Final residual = 8.90218e-06, No Iterations 9
smoothSolver:  Solving for Uy, Initial residual = 0.0010686, Final residual = 8.49138e-06, No Iterations 8
DICPCG:  Solving for p, Initial residual = 0.00577893, Final residual = 0.000283114, No Iterations 229
time step continuity errors : sum local = 3.7509e-10, global = -3.03826e-12, cumulative = 4.1528e-08
DICPCG:  Solving for p, Initial residual = 0.00415238, Final residual = 9.68068e-07, No Iterations 588
time step continuity errors : sum local = 1.30552e-12, global = 7.11139e-14, cumulative = 4.15281e-08
ExecutionTime = 687.19 s  ClockTime = 688 s

Time = 3.2

Courant Number mean: 0.0147839 max: 0.224448
smoothSolver:  Solving for Ux, Initial residual = 0.000281532, Final residual = 8.71332e-06, No Iterations 9
smoothSolver:  Solving for Uy, Initial residual = 0.00105739, Final residual = 8.35763e-06, No Iterations 8
DICPCG:  Solving for p, Initial residual = 0.00568703, Final residual = 0.000279334, No Iterations 220
time step continuity errors : sum local = 3.70066e-10, global = -1.19687e-12, cumulative = 4.15269e-08
DICPCG:  Solving for p, Initial residual = 0.0041895, Final residual = 9.86249e-07, No Iterations 770
time step continuity errors : sum local = 1.30118e-12, global = 8.13996e-15, cumulative = 4.15269e-08
ExecutionTime = 697.54 s  ClockTime = 698 s

Time = 3.25

Courant Number mean: 0.0147825 max: 0.223743
smoothSolver:  Solving for Ux, Initial residual = 0.000276288, Final residual = 8.53855e-06, No Iterations 9
smoothSolver:  Solving for Uy, Initial residual = 0.00104119, Final residual = 8.1829e-06, No Iterations 8
DICPCG:  Solving for p, Initial residual = 0.0056675, Final residual = 0.000277121, No Iterations 229
time step continuity errors : sum local = 3.6345e-10, global = -3.08995e-12, cumulative = 4.15238e-08
DICPCG:  Solving for p, Initial residual = 0.00407811, Final residual = 9.44372e-07, No Iterations 588
time step continuity errors : sum local = 1.2604e-12, global = -3.32552e-14, cumulative = 4.15237e-08
ExecutionTime = 706.21 s  ClockTime = 707 s

Time = 3.3

Courant Number mean: 0.014781 max: 0.223046
smoothSolver:  Solving for Ux, Initial residual = 0.000271938, Final residual = 8.36086e-06, No Iterations 9
smoothSolver:  Solving for Uy, Initial residual = 0.00103053, Final residual = 8.05871e-06, No Iterations 8
DICPCG:  Solving for p, Initial residual = 0.00558881, Final residual = 0.000276958, No Iterations 220
time step continuity errors : sum local = 3.63253e-10, global = -1.3389e-12, cumulative = 4.15224e-08
DICPCG:  Solving for p, Initial residual = 0.00412035, Final residual = 9.55101e-07, No Iterations 770
time step continuity errors : sum local = 1.24764e-12, global = 7.78381e-15, cumulative = 4.15224e-08
ExecutionTime = 716.57 s  ClockTime = 717 s

Time = 3.35

Courant Number mean: 0.0147796 max: 0.222356
smoothSolver:  Solving for Ux, Initial residual = 0.000266979, Final residual = 8.19628e-06, No Iterations 9
smoothSolver:  Solving for Uy, Initial residual = 0.00101499, Final residual = 7.89381e-06, No Iterations 8
DICPCG:  Solving for p, Initial residual = 0.00555888, Final residual = 0.000270559, No Iterations 229
time step continuity errors : sum local = 3.51414e-10, global = -2.90016e-12, cumulative = 4.15195e-08
DICPCG:  Solving for p, Initial residual = 0.00400465, Final residual = 9.84837e-07, No Iterations 587
time step continuity errors : sum local = 1.30136e-12, global = 3.25306e-14, cumulative = 4.15195e-08
ExecutionTime = 725.22 s  ClockTime = 726 s

Time = 3.4

Courant Number mean: 0.0147782 max: 0.221673
smoothSolver:  Solving for Ux, Initial residual = 0.000262869, Final residual = 8.0289e-06, No Iterations 9
smoothSolver:  Solving for Uy, Initial residual = 0.00100481, Final residual = 7.77964e-06, No Iterations 8
DICPCG:  Solving for p, Initial residual = 0.00547865, Final residual = 0.000269516, No Iterations 220
time step continuity errors : sum local = 3.50068e-10, global = -1.19206e-12, cumulative = 4.15184e-08
DICPCG:  Solving for p, Initial residual = 0.00404257, Final residual = 9.52456e-07, No Iterations 770
time step continuity errors : sum local = 1.23225e-12, global = 7.59192e-15, cumulative = 4.15184e-08
ExecutionTime = 735.57 s  ClockTime = 736 s

Time = 3.45

Courant Number mean: 0.0147768 max: 0.220998
smoothSolver:  Solving for Ux, Initial residual = 0.000258168, Final residual = 9.96721e-06, No Iterations 8
smoothSolver:  Solving for Uy, Initial residual = 0.000989879, Final residual = 7.623e-06, No Iterations 8
DICPCG:  Solving for p, Initial residual = 0.0059254, Final residual = 0.000293624, No Iterations 235
time step continuity errors : sum local = 3.77724e-10, global = -3.00958e-12, cumulative = 4.15154e-08
DICPCG:  Solving for p, Initial residual = 0.00481042, Final residual = 9.46692e-07, No Iterations 770
time step continuity errors : sum local = 1.23886e-12, global = 1.56797e-15, cumulative = 4.15154e-08
ExecutionTime = 746.05 s  ClockTime = 746 s

Time = 3.5

Courant Number mean: 0.0147754 max: 0.220341
smoothSolver:  Solving for Ux, Initial residual = 0.000251363, Final residual = 9.84162e-06, No Iterations 8
smoothSolver:  Solving for Uy, Initial residual = 0.000964671, Final residual = 7.57428e-06, No Iterations 8
DICPCG:  Solving for p, Initial residual = 0.00600638, Final residual = 0.000296799, No Iterations 219
time step continuity errors : sum local = 3.80383e-10, global = -2.239e-12, cumulative = 4.15131e-08
DICPCG:  Solving for p, Initial residual = 0.00461377, Final residual = 9.57445e-07, No Iterations 769
time step continuity errors : sum local = 1.2216e-12, global = 4.50618e-15, cumulative = 4.15131e-08
ExecutionTime = 756.38 s  ClockTime = 757 s

Time = 3.55

Courant Number mean: 0.0147741 max: 0.219688
smoothSolver:  Solving for Ux, Initial residual = 0.000248082, Final residual = 9.6494e-06, No Iterations 8
smoothSolver:  Solving for Uy, Initial residual = 0.000955514, Final residual = 9.77588e-06, No Iterations 7
DICPCG:  Solving for p, Initial residual = 0.00588993, Final residual = 0.000293783, No Iterations 230
time step continuity errors : sum local = 3.73554e-10, global = -2.89973e-12, cumulative = 4.15102e-08
DICPCG:  Solving for p, Initial residual = 0.00462212, Final residual = 9.7868e-07, No Iterations 771
time step continuity errors : sum local = 1.26772e-12, global = 1.06797e-14, cumulative = 4.15102e-08
ExecutionTime = 766.79 s  ClockTime = 767 s

Time = 3.6

Courant Number mean: 0.0147727 max: 0.219046
smoothSolver:  Solving for Ux, Initial residual = 0.000244006, Final residual = 9.47585e-06, No Iterations 8
smoothSolver:  Solving for Uy, Initial residual = 0.00094445, Final residual = 9.73883e-06, No Iterations 7
DICPCG:  Solving for p, Initial residual = 0.00589681, Final residual = 0.000292981, No Iterations 221
time step continuity errors : sum local = 3.72459e-10, global = -1.69145e-12, cumulative = 4.15085e-08
DICPCG:  Solving for p, Initial residual = 0.00465486, Final residual = 9.59194e-07, No Iterations 771
time step continuity errors : sum local = 1.21415e-12, global = 7.85458e-15, cumulative = 4.15085e-08
ExecutionTime = 777.13 s  ClockTime = 777 s

Time = 3.65

Courant Number mean: 0.0147714 max: 0.218411
smoothSolver:  Solving for Ux, Initial residual = 0.000240087, Final residual = 9.30679e-06, No Iterations 8
smoothSolver:  Solving for Uy, Initial residual = 0.000931913, Final residual = 9.53661e-06, No Iterations 7
DICPCG:  Solving for p, Initial residual = 0.00581285, Final residual = 0.000286391, No Iterations 229
time step continuity errors : sum local = 3.60693e-10, global = -3.1314e-12, cumulative = 4.15054e-08
DICPCG:  Solving for p, Initial residual = 0.00451415, Final residual = 9.84591e-07, No Iterations 588
time step continuity errors : sum local = 1.26279e-12, global = -7.46629e-14, cumulative = 4.15053e-08
ExecutionTime = 785.94 s  ClockTime = 786 s

Time = 3.7

Courant Number mean: 0.0147701 max: 0.217781
smoothSolver:  Solving for Ux, Initial residual = 0.000236667, Final residual = 9.13598e-06, No Iterations 8
smoothSolver:  Solving for Uy, Initial residual = 0.00092321, Final residual = 9.43447e-06, No Iterations 7
DICPCG:  Solving for p, Initial residual = 0.00576483, Final residual = 0.000287585, No Iterations 220
time step continuity errors : sum local = 3.62396e-10, global = -1.57797e-12, cumulative = 4.15038e-08
DICPCG:  Solving for p, Initial residual = 0.00457331, Final residual = 9.9619e-07, No Iterations 770
time step continuity errors : sum local = 1.25067e-12, global = 8.5114e-15, cumulative = 4.15038e-08
ExecutionTime = 796.42 s  ClockTime = 797 s

Time = 3.75

Courant Number mean: 0.0147688 max: 0.217158
smoothSolver:  Solving for Ux, Initial residual = 0.000232779, Final residual = 8.97766e-06, No Iterations 8
smoothSolver:  Solving for Uy, Initial residual = 0.000910341, Final residual = 9.25725e-06, No Iterations 7
DICPCG:  Solving for p, Initial residual = 0.00572832, Final residual = 0.00028283, No Iterations 229
time step continuity errors : sum local = 3.53107e-10, global = -2.97681e-12, cumulative = 4.15008e-08
DICPCG:  Solving for p, Initial residual = 0.00445038, Final residual = 9.88018e-07, No Iterations 588
time step continuity errors : sum local = 1.25575e-12, global = -9.31883e-14, cumulative = 4.15007e-08
ExecutionTime = 805.16 s  ClockTime = 805 s

Time = 3.8

Courant Number mean: 0.0147675 max: 0.216541
smoothSolver:  Solving for Ux, Initial residual = 0.000229591, Final residual = 8.81439e-06, No Iterations 8
smoothSolver:  Solving for Uy, Initial residual = 0.000902383, Final residual = 9.15294e-06, No Iterations 7
DICPCG:  Solving for p, Initial residual = 0.00566309, Final residual = 0.000281351, No Iterations 220
time step continuity errors : sum local = 3.51458e-10, global = -1.55459e-12, cumulative = 4.14991e-08
DICPCG:  Solving for p, Initial residual = 0.00449681, Final residual = 9.70481e-07, No Iterations 770
time step continuity errors : sum local = 1.20804e-12, global = 8.24329e-15, cumulative = 4.14992e-08
ExecutionTime = 815.59 s  ClockTime = 816 s

Time = 3.85

Courant Number mean: 0.0147663 max: 0.215931
smoothSolver:  Solving for Ux, Initial residual = 0.000225864, Final residual = 8.66433e-06, No Iterations 8
smoothSolver:  Solving for Uy, Initial residual = 0.000889865, Final residual = 8.98754e-06, No Iterations 7
DICPCG:  Solving for p, Initial residual = 0.00563272, Final residual = 0.000278007, No Iterations 229
time step continuity errors : sum local = 3.44139e-10, global = -2.87301e-12, cumulative = 4.14963e-08
DICPCG:  Solving for p, Initial residual = 0.00438057, Final residual = 9.64581e-07, No Iterations 588
time step continuity errors : sum local = 1.2152e-12, global = -8.50248e-14, cumulative = 4.14962e-08
ExecutionTime = 824.33 s  ClockTime = 825 s

Time = 3.9

Courant Number mean: 0.014765 max: 0.215326
smoothSolver:  Solving for Ux, Initial residual = 0.000222844, Final residual = 8.50884e-06, No Iterations 8
smoothSolver:  Solving for Uy, Initial residual = 0.000882297, Final residual = 8.88991e-06, No Iterations 7
DICPCG:  Solving for p, Initial residual = 0.00557011, Final residual = 0.000275105, No Iterations 220
time step continuity errors : sum local = 3.40742e-10, global = -1.5021e-12, cumulative = 4.14947e-08
DICPCG:  Solving for p, Initial residual = 0.0044221, Final residual = 9.62032e-07, No Iterations 770
time step continuity errors : sum local = 1.18754e-12, global = 7.84187e-15, cumulative = 4.14947e-08
ExecutionTime = 834.78 s  ClockTime = 835 s

Time = 3.95

Courant Number mean: 0.0147638 max: 0.214727
smoothSolver:  Solving for Ux, Initial residual = 0.000219283, Final residual = 8.3663e-06, No Iterations 8
smoothSolver:  Solving for Uy, Initial residual = 0.000870206, Final residual = 8.73264e-06, No Iterations 7
DICPCG:  Solving for p, Initial residual = 0.00554715, Final residual = 0.000274288, No Iterations 229
time step continuity errors : sum local = 3.36718e-10, global = -2.80163e-12, cumulative = 4.14919e-08
DICPCG:  Solving for p, Initial residual = 0.00431271, Final residual = 9.57379e-07, No Iterations 588
time step continuity errors : sum local = 1.19583e-12, global = -8.85914e-14, cumulative = 4.14918e-08
ExecutionTime = 843.52 s  ClockTime = 844 s

Time = 4

Courant Number mean: 0.0147625 max: 0.214134
smoothSolver:  Solving for Ux, Initial residual = 0.000216412, Final residual = 8.21827e-06, No Iterations 8
smoothSolver:  Solving for Uy, Initial residual = 0.000862981, Final residual = 8.64214e-06, No Iterations 7
DICPCG:  Solving for p, Initial residual = 0.00547707, Final residual = 0.000271067, No Iterations 220
time step continuity errors : sum local = 3.32958e-10, global = -1.4723e-12, cumulative = 4.14903e-08
DICPCG:  Solving for p, Initial residual = 0.0043551, Final residual = 9.43211e-07, No Iterations 770
time step continuity errors : sum local = 1.15478e-12, global = 7.62004e-15, cumulative = 4.14903e-08
ExecutionTime = 856.46 s  ClockTime = 857 s

Time = 4.05

Courant Number mean: 0.0147613 max: 0.213547
smoothSolver:  Solving for Ux, Initial residual = 0.000213011, Final residual = 8.08276e-06, No Iterations 8
smoothSolver:  Solving for Uy, Initial residual = 0.00085131, Final residual = 8.49173e-06, No Iterations 7
DICPCG:  Solving for p, Initial residual = 0.00544344, Final residual = 0.00026915, No Iterations 229
time step continuity errors : sum local = 3.27722e-10, global = -2.72529e-12, cumulative = 4.14876e-08
DICPCG:  Solving for p, Initial residual = 0.00424389, Final residual = 9.44144e-07, No Iterations 588
time step continuity errors : sum local = 1.16942e-12, global = -8.52568e-14, cumulative = 4.14875e-08
ExecutionTime = 865.18 s  ClockTime = 866 s

Time = 4.1

Courant Number mean: 0.0147601 max: 0.212966
smoothSolver:  Solving for Ux, Initial residual = 0.000210279, Final residual = 7.94176e-06, No Iterations 8
smoothSolver:  Solving for Uy, Initial residual = 0.000844396, Final residual = 8.40744e-06, No Iterations 7
DICPCG:  Solving for p, Initial residual = 0.00537485, Final residual = 0.000266324, No Iterations 220
time step continuity errors : sum local = 3.24473e-10, global = -1.43219e-12, cumulative = 4.14861e-08
DICPCG:  Solving for p, Initial residual = 0.00428435, Final residual = 9.85249e-07, No Iterations 769
time step continuity errors : sum local = 1.1966e-12, global = 8.13531e-15, cumulative = 4.14861e-08
ExecutionTime = 875.62 s  ClockTime = 876 s

Time = 4.15

Courant Number mean: 0.0147589 max: 0.21239
smoothSolver:  Solving for Ux, Initial residual = 0.000207029, Final residual = 9.98099e-06, No Iterations 7
smoothSolver:  Solving for Uy, Initial residual = 0.000833117, Final residual = 8.26387e-06, No Iterations 7
DICPCG:  Solving for p, Initial residual = 0.00592373, Final residual = 0.000294929, No Iterations 232
time step continuity errors : sum local = 3.56266e-10, global = -2.63279e-12, cumulative = 4.14835e-08
DICPCG:  Solving for p, Initial residual = 0.00518284, Final residual = 9.54662e-07, No Iterations 770
time step continuity errors : sum local = 1.17278e-12, global = 1.92189e-15, cumulative = 4.14835e-08
ExecutionTime = 886.16 s  ClockTime = 887 s

Time = 4.2

Courant Number mean: 0.0147577 max: 0.211832
smoothSolver:  Solving for Ux, Initial residual = 0.000201502, Final residual = 9.89981e-06, No Iterations 7
smoothSolver:  Solving for Uy, Initial residual = 0.00081006, Final residual = 8.25307e-06, No Iterations 7
DICPCG:  Solving for p, Initial residual = 0.00605163, Final residual = 0.000300408, No Iterations 217
time step continuity errors : sum local = 3.61499e-10, global = -2.27891e-12, cumulative = 4.14812e-08
DICPCG:  Solving for p, Initial residual = 0.0049748, Final residual = 9.51033e-07, No Iterations 768
time step continuity errors : sum local = 1.14008e-12, global = 5.92094e-15, cumulative = 4.14812e-08
ExecutionTime = 896.78 s  ClockTime = 897 s

Time = 4.25

Courant Number mean: 0.0147566 max: 0.211277
smoothSolver:  Solving for Ux, Initial residual = 0.000199512, Final residual = 9.73197e-06, No Iterations 7
smoothSolver:  Solving for Uy, Initial residual = 0.000804493, Final residual = 8.06568e-06, No Iterations 7
DICPCG:  Solving for p, Initial residual = 0.00584225, Final residual = 0.000284921, No Iterations 230
time step continuity errors : sum local = 3.40532e-10, global = -2.93669e-12, cumulative = 4.14783e-08
DICPCG:  Solving for p, Initial residual = 0.00484916, Final residual = 9.94935e-07, No Iterations 589
time step continuity errors : sum local = 1.21084e-12, global = 1.95896e-13, cumulative = 4.14785e-08
ExecutionTime = 905.43 s  ClockTime = 906 s

Time = 4.3

Courant Number mean: 0.0147554 max: 0.210727
smoothSolver:  Solving for Ux, Initial residual = 0.000196845, Final residual = 9.58359e-06, No Iterations 7
smoothSolver:  Solving for Uy, Initial residual = 0.000797068, Final residual = 8.02395e-06, No Iterations 7
DICPCG:  Solving for p, Initial residual = 0.00583386, Final residual = 0.000286026, No Iterations 217
time step continuity errors : sum local = 3.42117e-10, global = -1.15743e-12, cumulative = 4.14773e-08
DICPCG:  Solving for p, Initial residual = 0.00489107, Final residual = 9.48712e-07, No Iterations 768
time step continuity errors : sum local = 1.13114e-12, global = 4.95479e-15, cumulative = 4.14773e-08
ExecutionTime = 915.67 s  ClockTime = 916 s

Time = 4.35

Courant Number mean: 0.0147543 max: 0.210183
smoothSolver:  Solving for Ux, Initial residual = 0.00019407, Final residual = 9.44132e-06, No Iterations 7
smoothSolver:  Solving for Uy, Initial residual = 0.000787216, Final residual = 7.87071e-06, No Iterations 7
DICPCG:  Solving for p, Initial residual = 0.00578708, Final residual = 0.000286151, No Iterations 229
time step continuity errors : sum local = 3.39246e-10, global = -3.29477e-12, cumulative = 4.1474e-08
DICPCG:  Solving for p, Initial residual = 0.00477963, Final residual = 9.8008e-07, No Iterations 767
time step continuity errors : sum local = 1.18288e-12, global = 3.94374e-15, cumulative = 4.1474e-08
ExecutionTime = 926.03 s  ClockTime = 926 s

Time = 4.4

Courant Number mean: 0.0147532 max: 0.209643
smoothSolver:  Solving for Ux, Initial residual = 0.000191793, Final residual = 9.29207e-06, No Iterations 7
smoothSolver:  Solving for Uy, Initial residual = 0.000781532, Final residual = 7.82087e-06, No Iterations 7
DICPCG:  Solving for p, Initial residual = 0.00574173, Final residual = 0.000281411, No Iterations 217
time step continuity errors : sum local = 3.3412e-10, global = -1.34512e-12, cumulative = 4.14727e-08
DICPCG:  Solving for p, Initial residual = 0.00482587, Final residual = 9.95343e-07, No Iterations 767
time step continuity errors : sum local = 1.17829e-12, global = 5.73104e-15, cumulative = 4.14727e-08
ExecutionTime = 936.36 s  ClockTime = 937 s

Time = 4.45

Courant Number mean: 0.0147521 max: 0.209109
smoothSolver:  Solving for Ux, Initial residual = 0.000189046, Final residual = 9.15772e-06, No Iterations 7
smoothSolver:  Solving for Uy, Initial residual = 0.00077154, Final residual = 7.67943e-06, No Iterations 7
DICPCG:  Solving for p, Initial residual = 0.00569813, Final residual = 0.000281391, No Iterations 229
time step continuity errors : sum local = 3.31231e-10, global = -3.03602e-12, cumulative = 4.14697e-08
DICPCG:  Solving for p, Initial residual = 0.00471047, Final residual = 9.67199e-07, No Iterations 767
time step continuity errors : sum local = 1.15855e-12, global = 3.30717e-15, cumulative = 4.14697e-08
ExecutionTime = 946.67 s  ClockTime = 947 s

Time = 4.5

Courant Number mean: 0.014751 max: 0.208578
smoothSolver:  Solving for Ux, Initial residual = 0.000186894, Final residual = 9.01353e-06, No Iterations 7
smoothSolver:  Solving for Uy, Initial residual = 0.000766239, Final residual = 7.63145e-06, No Iterations 7
DICPCG:  Solving for p, Initial residual = 0.00564112, Final residual = 0.000280389, No Iterations 216
time step continuity errors : sum local = 3.3049e-10, global = -1.28935e-12, cumulative = 4.14684e-08
DICPCG:  Solving for p, Initial residual = 0.00475536, Final residual = 9.84556e-07, No Iterations 767
time step continuity errors : sum local = 1.15726e-12, global = 5.48307e-15, cumulative = 4.14684e-08
ExecutionTime = 956.87 s  ClockTime = 957 s

Time = 4.55

Courant Number mean: 0.0147499 max: 0.208053
smoothSolver:  Solving for Ux, Initial residual = 0.000184248, Final residual = 8.8848e-06, No Iterations 7
smoothSolver:  Solving for Uy, Initial residual = 0.000756469, Final residual = 7.49518e-06, No Iterations 7
DICPCG:  Solving for p, Initial residual = 0.00560627, Final residual = 0.000277267, No Iterations 229
time step continuity errors : sum local = 3.24061e-10, global = -2.95549e-12, cumulative = 4.14654e-08
DICPCG:  Solving for p, Initial residual = 0.00464255, Final residual = 9.99727e-07, No Iterations 766
time step continuity errors : sum local = 1.1888e-12, global = 3.68766e-15, cumulative = 4.14654e-08
ExecutionTime = 967.19 s  ClockTime = 968 s

Time = 4.6

Courant Number mean: 0.0147488 max: 0.207532
smoothSolver:  Solving for Ux, Initial residual = 0.000182194, Final residual = 8.74628e-06, No Iterations 7
smoothSolver:  Solving for Uy, Initial residual = 0.000751446, Final residual = 7.45032e-06, No Iterations 7
DICPCG:  Solving for p, Initial residual = 0.00555716, Final residual = 0.00027065, No Iterations 217
time step continuity errors : sum local = 3.16755e-10, global = -1.28666e-12, cumulative = 4.14641e-08
DICPCG:  Solving for p, Initial residual = 0.00468652, Final residual = 9.7357e-07, No Iterations 767
time step continuity errors : sum local = 1.13636e-12, global = 5.28161e-15, cumulative = 4.14641e-08
ExecutionTime = 977.38 s  ClockTime = 978 s

Time = 4.65

Courant Number mean: 0.0147477 max: 0.207017
smoothSolver:  Solving for Ux, Initial residual = 0.00017965, Final residual = 8.6232e-06, No Iterations 7
smoothSolver:  Solving for Uy, Initial residual = 0.000741997, Final residual = 9.9e-06, No Iterations 6
DICPCG:  Solving for p, Initial residual = 0.0056098, Final residual = 0.000276824, No Iterations 230
time step continuity errors : sum local = 3.21313e-10, global = -2.82754e-12, cumulative = 4.14613e-08
DICPCG:  Solving for p, Initial residual = 0.00471228, Final residual = 9.66286e-07, No Iterations 589
time step continuity errors : sum local = 1.14169e-12, global = -1.03987e-13, cumulative = 4.14612e-08
ExecutionTime = 985.97 s  ClockTime = 986 s

Time = 4.7

Courant Number mean: 0.0147466 max: 0.206509
smoothSolver:  Solving for Ux, Initial residual = 0.000177492, Final residual = 8.49174e-06, No Iterations 7
smoothSolver:  Solving for Uy, Initial residual = 0.000736505, Final residual = 9.91215e-06, No Iterations 6
DICPCG:  Solving for p, Initial residual = 0.00559836, Final residual = 0.00027457, No Iterations 220
time step continuity errors : sum local = 3.19058e-10, global = -1.62464e-12, cumulative = 4.14596e-08
DICPCG:  Solving for p, Initial residual = 0.00474978, Final residual = 9.54602e-07, No Iterations 770
time step continuity errors : sum local = 1.1063e-12, global = 7.19959e-15, cumulative = 4.14596e-08
ExecutionTime = 996.22 s  ClockTime = 997 s

Time = 4.75

Courant Number mean: 0.0147456 max: 0.206005
smoothSolver:  Solving for Ux, Initial residual = 0.000175114, Final residual = 8.37234e-06, No Iterations 7
smoothSolver:  Solving for Uy, Initial residual = 0.000727712, Final residual = 9.7518e-06, No Iterations 6
DICPCG:  Solving for p, Initial residual = 0.00552462, Final residual = 0.000274936, No Iterations 229
time step continuity errors : sum local = 3.16971e-10, global = -2.69403e-12, cumulative = 4.14569e-08
DICPCG:  Solving for p, Initial residual = 0.00461646, Final residual = 9.86381e-07, No Iterations 589
time step continuity errors : sum local = 1.15692e-12, global = -1.72241e-13, cumulative = 4.14567e-08
ExecutionTime = 1004.79 s  ClockTime = 1005 s

Time = 4.8

Courant Number mean: 0.0147445 max: 0.205506
smoothSolver:  Solving for Ux, Initial residual = 0.000173205, Final residual = 8.24535e-06, No Iterations 7
smoothSolver:  Solving for Uy, Initial residual = 0.000722867, Final residual = 9.6928e-06, No Iterations 6
DICPCG:  Solving for p, Initial residual = 0.00549494, Final residual = 0.000272303, No Iterations 219
time step continuity errors : sum local = 3.14289e-10, global = -1.64817e-12, cumulative = 4.14551e-08
DICPCG:  Solving for p, Initial residual = 0.00467193, Final residual = 9.87358e-07, No Iterations 769
time step continuity errors : sum local = 1.13693e-12, global = 7.58166e-15, cumulative = 4.14551e-08
ExecutionTime = 1015.01 s  ClockTime = 1015 s

Time = 4.85

Courant Number mean: 0.0147435 max: 0.205011
smoothSolver:  Solving for Ux, Initial residual = 0.000170871, Final residual = 8.13144e-06, No Iterations 7
smoothSolver:  Solving for Uy, Initial residual = 0.000714062, Final residual = 9.54922e-06, No Iterations 6
DICPCG:  Solving for p, Initial residual = 0.00545943, Final residual = 0.000268989, No Iterations 229
time step continuity errors : sum local = 3.08082e-10, global = -2.54548e-12, cumulative = 4.14525e-08
DICPCG:  Solving for p, Initial residual = 0.00455772, Final residual = 9.65558e-07, No Iterations 589
time step continuity errors : sum local = 1.12482e-12, global = -1.46766e-13, cumulative = 4.14524e-08
ExecutionTime = 1023.6 s  ClockTime = 1024 s

Time = 4.9

Courant Number mean: 0.0147424 max: 0.204519
smoothSolver:  Solving for Ux, Initial residual = 0.000169065, Final residual = 8.00947e-06, No Iterations 7
smoothSolver:  Solving for Uy, Initial residual = 0.000709563, Final residual = 9.48729e-06, No Iterations 6
DICPCG:  Solving for p, Initial residual = 0.00541424, Final residual = 0.000267721, No Iterations 219
time step continuity errors : sum local = 3.0697e-10, global = -1.56449e-12, cumulative = 4.14508e-08
DICPCG:  Solving for p, Initial residual = 0.0046056, Final residual = 9.81288e-07, No Iterations 769
time step continuity errors : sum local = 1.12262e-12, global = 7.36712e-15, cumulative = 4.14508e-08
ExecutionTime = 1033.84 s  ClockTime = 1034 s

Time = 4.95

Courant Number mean: 0.0147414 max: 0.204033
smoothSolver:  Solving for Ux, Initial residual = 0.000166811, Final residual = 7.90032e-06, No Iterations 7
smoothSolver:  Solving for Uy, Initial residual = 0.000700986, Final residual = 9.35155e-06, No Iterations 6
DICPCG:  Solving for p, Initial residual = 0.00538124, Final residual = 0.000267325, No Iterations 229
time step continuity errors : sum local = 3.04186e-10, global = -2.51507e-12, cumulative = 4.14483e-08
DICPCG:  Solving for p, Initial residual = 0.00449874, Final residual = 9.65098e-07, No Iterations 589
time step continuity errors : sum local = 1.11675e-12, global = -1.63574e-13, cumulative = 4.14482e-08
ExecutionTime = 1042.39 s  ClockTime = 1043 s

Time = 5

Courant Number mean: 0.0147404 max: 0.20355
smoothSolver:  Solving for Ux, Initial residual = 0.000165084, Final residual = 7.78319e-06, No Iterations 7
smoothSolver:  Solving for Uy, Initial residual = 0.000696682, Final residual = 9.29354e-06, No Iterations 6
DICPCG:  Solving for p, Initial residual = 0.00532999, Final residual = 0.000264221, No Iterations 219
time step continuity errors : sum local = 3.00991e-10, global = -1.56448e-12, cumulative = 4.14466e-08
DICPCG:  Solving for p, Initial residual = 0.00454052, Final residual = 9.60548e-07, No Iterations 769
time step continuity errors : sum local = 1.09189e-12, global = 7.16288e-15, cumulative = 4.14466e-08
ExecutionTime = 1055.13 s  ClockTime = 1055 s

Time = 5.05

Courant Number mean: 0.0147394 max: 0.203071
smoothSolver:  Solving for Ux, Initial residual = 0.000162915, Final residual = 9.9216e-06, No Iterations 6
smoothSolver:  Solving for Uy, Initial residual = 0.000688344, Final residual = 9.16204e-06, No Iterations 6
DICPCG:  Solving for p, Initial residual = 0.00599349, Final residual = 0.000293726, No Iterations 231
time step continuity errors : sum local = 3.32126e-10, global = -2.36446e-12, cumulative = 4.14442e-08
DICPCG:  Solving for p, Initial residual = 0.00558721, Final residual = 9.69684e-07, No Iterations 770
time step continuity errors : sum local = 1.11451e-12, global = 2.80268e-15, cumulative = 4.14442e-08
ExecutionTime = 1065.46 s  ClockTime = 1066 s

Time = 5.1

Courant Number mean: 0.0147384 max: 0.202611
smoothSolver:  Solving for Ux, Initial residual = 0.000158372, Final residual = 9.88545e-06, No Iterations 6
smoothSolver:  Solving for Uy, Initial residual = 0.00066704, Final residual = 9.19852e-06, No Iterations 6
DICPCG:  Solving for p, Initial residual = 0.0061742, Final residual = 0.000302081, No Iterations 213
time step continuity errors : sum local = 3.40184e-10, global = -2.16633e-12, cumulative = 4.14421e-08
DICPCG:  Solving for p, Initial residual = 0.00536066, Final residual = 9.58234e-07, No Iterations 767
time step continuity errors : sum local = 1.07649e-12, global = 7.71003e-15, cumulative = 4.14421e-08
ExecutionTime = 1075.6 s  ClockTime = 1076 s

Time = 5.15

Courant Number mean: 0.0147374 max: 0.202151
smoothSolver:  Solving for Ux, Initial residual = 0.000157308, Final residual = 9.74017e-06, No Iterations 6
smoothSolver:  Solving for Uy, Initial residual = 0.000664064, Final residual = 8.99974e-06, No Iterations 6
DICPCG:  Solving for p, Initial residual = 0.00594613, Final residual = 0.000295079, No Iterations 228
time step continuity errors : sum local = 3.30458e-10, global = -2.62727e-12, cumulative = 4.14394e-08
DICPCG:  Solving for p, Initial residual = 0.00523621, Final residual = 9.74512e-07, No Iterations 587
time step continuity errors : sum local = 1.11078e-12, global = 8.40195e-14, cumulative = 4.14395e-08
ExecutionTime = 1084.11 s  ClockTime = 1084 s

Time = 5.2

Courant Number mean: 0.0147364 max: 0.201695
smoothSolver:  Solving for Ux, Initial residual = 0.000155557, Final residual = 9.61717e-06, No Iterations 6
smoothSolver:  Solving for Uy, Initial residual = 0.000659148, Final residual = 8.98265e-06, No Iterations 6
DICPCG:  Solving for p, Initial residual = 0.00593821, Final residual = 0.000293219, No Iterations 215
time step continuity errors : sum local = 3.28794e-10, global = -1.35185e-12, cumulative = 4.14382e-08
DICPCG:  Solving for p, Initial residual = 0.00527875, Final residual = 9.74143e-07, No Iterations 767
time step continuity errors : sum local = 1.0897e-12, global = 6.12249e-15, cumulative = 4.14382e-08
ExecutionTime = 1094.27 s  ClockTime = 1095 s

Time = 5.25

Courant Number mean: 0.0147355 max: 0.201244
smoothSolver:  Solving for Ux, Initial residual = 0.00015371, Final residual = 9.49963e-06, No Iterations 6
smoothSolver:  Solving for Uy, Initial residual = 0.00065194, Final residual = 8.84047e-06, No Iterations 6
DICPCG:  Solving for p, Initial residual = 0.00588247, Final residual = 0.000290949, No Iterations 228
time step continuity errors : sum local = 3.23691e-10, global = -3.0576e-12, cumulative = 4.14351e-08
DICPCG:  Solving for p, Initial residual = 0.00516454, Final residual = 9.72459e-07, No Iterations 767
time step continuity errors : sum local = 1.10092e-12, global = 4.70771e-15, cumulative = 4.14351e-08
ExecutionTime = 1104.54 s  ClockTime = 1105 s

Time = 5.3

Courant Number mean: 0.0147345 max: 0.200795
smoothSolver:  Solving for Ux, Initial residual = 0.000152264, Final residual = 9.37283e-06, No Iterations 6
smoothSolver:  Solving for Uy, Initial residual = 0.000648431, Final residual = 8.81019e-06, No Iterations 6
DICPCG:  Solving for p, Initial residual = 0.00584517, Final residual = 0.000290508, No Iterations 214
time step continuity errors : sum local = 3.2387e-10, global = -1.31705e-12, cumulative = 4.14338e-08
DICPCG:  Solving for p, Initial residual = 0.00521463, Final residual = 9.66597e-07, No Iterations 767
time step continuity errors : sum local = 1.07534e-12, global = 5.78923e-15, cumulative = 4.14338e-08
ExecutionTime = 1114.68 s  ClockTime = 1115 s

Time = 5.35

Courant Number mean: 0.0147336 max: 0.20035
smoothSolver:  Solving for Ux, Initial residual = 0.000150409, Final residual = 9.26103e-06, No Iterations 6
smoothSolver:  Solving for Uy, Initial residual = 0.000640973, Final residual = 8.67292e-06, No Iterations 6
DICPCG:  Solving for p, Initial residual = 0.00581346, Final residual = 0.000286524, No Iterations 228
time step continuity errors : sum local = 3.16957e-10, global = -2.9053e-12, cumulative = 4.14309e-08
DICPCG:  Solving for p, Initial residual = 0.0051004, Final residual = 9.61968e-07, No Iterations 767
time step continuity errors : sum local = 1.08252e-12, global = 4.46716e-15, cumulative = 4.14309e-08
ExecutionTime = 1124.99 s  ClockTime = 1125 s

Time = 5.4

Courant Number mean: 0.0147327 max: 0.199908
smoothSolver:  Solving for Ux, Initial residual = 0.000149041, Final residual = 9.13752e-06, No Iterations 6
smoothSolver:  Solving for Uy, Initial residual = 0.000637789, Final residual = 8.64379e-06, No Iterations 6
DICPCG:  Solving for p, Initial residual = 0.00576972, Final residual = 0.000284075, No Iterations 214
time step continuity errors : sum local = 3.14884e-10, global = -1.28847e-12, cumulative = 4.14296e-08
DICPCG:  Solving for p, Initial residual = 0.00514755, Final residual = 9.53407e-07, No Iterations 767
time step continuity errors : sum local = 1.05472e-12, global = 5.52213e-15, cumulative = 4.14296e-08
ExecutionTime = 1135.13 s  ClockTime = 1136 s

Time = 5.45

Courant Number mean: 0.0147317 max: 0.199471
smoothSolver:  Solving for Ux, Initial residual = 0.000147241, Final residual = 9.02985e-06, No Iterations 6
[...]
time step continuity errors : sum local = 2.792e-10, global = -7.49286e-13, cumulative = 4.11435e-08
DICPCG:  Solving for p, Initial residual = 0.00668047, Final residual = 9.74529e-07, No Iterations 753
time step continuity errors : sum local = 8.20843e-13, global = -4.34559e-15, cumulative = 4.11435e-08
ExecutionTime = 3332.49 s  ClockTime = 3334 s

Time = 16.45

Courant Number mean: 0.014616 max: 0.161635
smoothSolver:  Solving for Ux, Initial residual = 4.43777e-05, Final residual = 8.50388e-06, No Iterations 2
smoothSolver:  Solving for Uy, Initial residual = 0.000237817, Final residual = 6.62106e-06, No Iterations 4
DICPCG:  Solving for p, Initial residual = 0.00666064, Final residual = 0.00033166, No Iterations 178
time step continuity errors : sum local = 2.79496e-10, global = -6.38312e-13, cumulative = 4.11428e-08
DICPCG:  Solving for p, Initial residual = 0.00663141, Final residual = 9.74268e-07, No Iterations 749
time step continuity errors : sum local = 8.25173e-13, global = 5.86194e-16, cumulative = 4.11428e-08
ExecutionTime = 3341.98 s  ClockTime = 3344 s

Time = 16.5

Courant Number mean: 0.0146157 max: 0.16153
smoothSolver:  Solving for Ux, Initial residual = 4.4245e-05, Final residual = 8.4734e-06, No Iterations 2
smoothSolver:  Solving for Uy, Initial residual = 0.00023697, Final residual = 6.66922e-06, No Iterations 4
DICPCG:  Solving for p, Initial residual = 0.00660646, Final residual = 0.000329465, No Iterations 195
time step continuity errors : sum local = 2.78533e-10, global = -7.48855e-13, cumulative = 4.11421e-08
DICPCG:  Solving for p, Initial residual = 0.00665613, Final residual = 9.70298e-07, No Iterations 753
time step continuity errors : sum local = 8.16553e-13, global = -4.39892e-15, cumulative = 4.11421e-08
ExecutionTime = 3351.68 s  ClockTime = 3353 s

Time = 16.55

Courant Number mean: 0.0146153 max: 0.161425
smoothSolver:  Solving for Ux, Initial residual = 4.4178e-05, Final residual = 8.45146e-06, No Iterations 2
smoothSolver:  Solving for Uy, Initial residual = 0.000237051, Final residual = 6.58283e-06, No Iterations 4
DICPCG:  Solving for p, Initial residual = 0.00663859, Final residual = 0.00033024, No Iterations 178
time step continuity errors : sum local = 2.78062e-10, global = -6.40155e-13, cumulative = 4.11414e-08
DICPCG:  Solving for p, Initial residual = 0.0066065, Final residual = 9.99984e-07, No Iterations 748
time step continuity errors : sum local = 8.4621e-13, global = 9.19893e-16, cumulative = 4.11414e-08
ExecutionTime = 3361.13 s  ClockTime = 3363 s

Time = 16.6

Courant Number mean: 0.014615 max: 0.161321
smoothSolver:  Solving for Ux, Initial residual = 4.40465e-05, Final residual = 8.42128e-06, No Iterations 2
smoothSolver:  Solving for Uy, Initial residual = 0.00023621, Final residual = 6.63129e-06, No Iterations 4
DICPCG:  Solving for p, Initial residual = 0.00657824, Final residual = 0.000328346, No Iterations 195
time step continuity errors : sum local = 2.77351e-10, global = -7.47865e-13, cumulative = 4.11407e-08
DICPCG:  Solving for p, Initial residual = 0.00663042, Final residual = 9.69723e-07, No Iterations 753
time step continuity errors : sum local = 8.15362e-13, global = -4.50657e-15, cumulative = 4.11407e-08
ExecutionTime = 3370.82 s  ClockTime = 3373 s

Time = 16.65

Courant Number mean: 0.0146147 max: 0.161217
smoothSolver:  Solving for Ux, Initial residual = 4.39802e-05, Final residual = 8.3996e-06, No Iterations 2
smoothSolver:  Solving for Uy, Initial residual = 0.000236291, Final residual = 6.54478e-06, No Iterations 4
DICPCG:  Solving for p, Initial residual = 0.00661009, Final residual = 0.000329938, No Iterations 178
time step continuity errors : sum local = 2.77576e-10, global = -6.39773e-13, cumulative = 4.114e-08
DICPCG:  Solving for p, Initial residual = 0.00658231, Final residual = 9.92797e-07, No Iterations 748
time step continuity errors : sum local = 8.39405e-13, global = 8.55649e-16, cumulative = 4.114e-08
ExecutionTime = 3380.27 s  ClockTime = 3382 s

Time = 16.7

Courant Number mean: 0.0146143 max: 0.161112
smoothSolver:  Solving for Ux, Initial residual = 4.38498e-05, Final residual = 8.36973e-06, No Iterations 2
smoothSolver:  Solving for Uy, Initial residual = 0.000235456, Final residual = 6.59335e-06, No Iterations 4
DICPCG:  Solving for p, Initial residual = 0.00655211, Final residual = 0.000326828, No Iterations 195
time step continuity errors : sum local = 2.75839e-10, global = -7.46498e-13, cumulative = 4.11393e-08
DICPCG:  Solving for p, Initial residual = 0.00660487, Final residual = 9.97986e-07, No Iterations 752
time step continuity errors : sum local = 8.38419e-13, global = -4.79489e-15, cumulative = 4.11393e-08
ExecutionTime = 3389.95 s  ClockTime = 3392 s

Time = 16.75

Courant Number mean: 0.014614 max: 0.161008
smoothSolver:  Solving for Ux, Initial residual = 4.37845e-05, Final residual = 8.34832e-06, No Iterations 2
smoothSolver:  Solving for Uy, Initial residual = 0.000235537, Final residual = 6.50706e-06, No Iterations 4
DICPCG:  Solving for p, Initial residual = 0.00658412, Final residual = 0.000328018, No Iterations 178
time step continuity errors : sum local = 2.75735e-10, global = -6.37907e-13, cumulative = 4.11387e-08
DICPCG:  Solving for p, Initial residual = 0.00655533, Final residual = 9.77864e-07, No Iterations 748
time step continuity errors : sum local = 8.26069e-13, global = 8.14299e-16, cumulative = 4.11387e-08
ExecutionTime = 3399.42 s  ClockTime = 3401 s

Time = 16.8

Courant Number mean: 0.0146137 max: 0.160905
smoothSolver:  Solving for Ux, Initial residual = 4.36553e-05, Final residual = 8.31879e-06, No Iterations 2
smoothSolver:  Solving for Uy, Initial residual = 0.000234709, Final residual = 6.55566e-06, No Iterations 4
DICPCG:  Solving for p, Initial residual = 0.00652669, Final residual = 0.000326176, No Iterations 195
time step continuity errors : sum local = 2.75061e-10, global = -7.47161e-13, cumulative = 4.11379e-08
DICPCG:  Solving for p, Initial residual = 0.00658251, Final residual = 9.97728e-07, No Iterations 752
time step continuity errors : sum local = 8.37504e-13, global = -4.85446e-15, cumulative = 4.11379e-08
ExecutionTime = 3409.1 s  ClockTime = 3411 s

Time = 16.85

Courant Number mean: 0.0146134 max: 0.160801
smoothSolver:  Solving for Ux, Initial residual = 4.35909e-05, Final residual = 8.29763e-06, No Iterations 2
smoothSolver:  Solving for Uy, Initial residual = 0.000234793, Final residual = 6.46953e-06, No Iterations 4
DICPCG:  Solving for p, Initial residual = 0.00655918, Final residual = 0.000327353, No Iterations 178
time step continuity errors : sum local = 2.74954e-10, global = -6.36237e-13, cumulative = 4.11373e-08
DICPCG:  Solving for p, Initial residual = 0.00653056, Final residual = 9.78643e-07, No Iterations 747
time step continuity errors : sum local = 8.26023e-13, global = 8.5322e-16, cumulative = 4.11373e-08
ExecutionTime = 3418.58 s  ClockTime = 3420 s

Time = 16.9

Courant Number mean: 0.014613 max: 0.160697
smoothSolver:  Solving for Ux, Initial residual = 4.34628e-05, Final residual = 8.26842e-06, No Iterations 2
smoothSolver:  Solving for Uy, Initial residual = 0.000233969, Final residual = 6.51833e-06, No Iterations 4
DICPCG:  Solving for p, Initial residual = 0.00650279, Final residual = 0.000323436, No Iterations 195
time step continuity errors : sum local = 2.72526e-10, global = -7.43399e-13, cumulative = 4.11365e-08
DICPCG:  Solving for p, Initial residual = 0.00655412, Final residual = 9.57811e-07, No Iterations 753
time step continuity errors : sum local = 8.03342e-13, global = -4.64371e-15, cumulative = 4.11365e-08
ExecutionTime = 3428.29 s  ClockTime = 3430 s

Time = 16.95

Courant Number mean: 0.0146127 max: 0.160594
smoothSolver:  Solving for Ux, Initial residual = 4.33993e-05, Final residual = 8.24754e-06, No Iterations 2
smoothSolver:  Solving for Uy, Initial residual = 0.000234051, Final residual = 9.94765e-06, No Iterations 3
DICPCG:  Solving for p, Initial residual = 0.00655146, Final residual = 0.000326636, No Iterations 193
time step continuity errors : sum local = 2.74134e-10, global = -1.20552e-12, cumulative = 4.11353e-08
DICPCG:  Solving for p, Initial residual = 0.00654193, Final residual = 9.86268e-07, No Iterations 760
time step continuity errors : sum local = 8.33897e-13, global = -1.37128e-15, cumulative = 4.11353e-08
ExecutionTime = 3438.02 s  ClockTime = 3440 s

Time = 17

Courant Number mean: 0.0146124 max: 0.160491
smoothSolver:  Solving for Ux, Initial residual = 4.31675e-05, Final residual = 8.22211e-06, No Iterations 2
smoothSolver:  Solving for Uy, Initial residual = 0.000233266, Final residual = 6.58261e-06, No Iterations 4
DICPCG:  Solving for p, Initial residual = 0.00652714, Final residual = 0.000323277, No Iterations 198
time step continuity errors : sum local = 2.72091e-10, global = -8.80189e-13, cumulative = 4.11344e-08
DICPCG:  Solving for p, Initial residual = 0.00653052, Final residual = 9.89632e-07, No Iterations 748
time step continuity errors : sum local = 8.28691e-13, global = -5.35698e-16, cumulative = 4.11344e-08
ExecutionTime = 3450.22 s  ClockTime = 3452 s

Time = 17.05

Courant Number mean: 0.0146121 max: 0.160388
smoothSolver:  Solving for Ux, Initial residual = 4.32466e-05, Final residual = 8.19733e-06, No Iterations 2
smoothSolver:  Solving for Uy, Initial residual = 0.000233513, Final residual = 9.8527e-06, No Iterations 3
DICPCG:  Solving for p, Initial residual = 0.00653082, Final residual = 0.000325146, No Iterations 192
time step continuity errors : sum local = 2.72727e-10, global = -1.10774e-12, cumulative = 4.11333e-08
DICPCG:  Solving for p, Initial residual = 0.0065083, Final residual = 9.76317e-07, No Iterations 760
time step continuity errors : sum local = 8.24906e-13, global = -7.63323e-16, cumulative = 4.11333e-08
ExecutionTime = 3460 s  ClockTime = 3462 s

Time = 17.1

Courant Number mean: 0.0146117 max: 0.160285
smoothSolver:  Solving for Ux, Initial residual = 4.29662e-05, Final residual = 8.17301e-06, No Iterations 2
smoothSolver:  Solving for Uy, Initial residual = 0.000232456, Final residual = 6.55966e-06, No Iterations 4
DICPCG:  Solving for p, Initial residual = 0.00651209, Final residual = 0.000324396, No Iterations 194
time step continuity errors : sum local = 2.72784e-10, global = -7.59224e-13, cumulative = 4.11326e-08
DICPCG:  Solving for p, Initial residual = 0.00651533, Final residual = 9.85229e-07, No Iterations 749
time step continuity errors : sum local = 8.24394e-13, global = -2.09806e-16, cumulative = 4.11326e-08
ExecutionTime = 3469.69 s  ClockTime = 3472 s

Time = 17.15

Courant Number mean: 0.0146114 max: 0.160182
smoothSolver:  Solving for Ux, Initial residual = 4.30589e-05, Final residual = 8.14769e-06, No Iterations 2
smoothSolver:  Solving for Uy, Initial residual = 0.000232752, Final residual = 9.8142e-06, No Iterations 3
DICPCG:  Solving for p, Initial residual = 0.00651144, Final residual = 0.000322912, No Iterations 193
time step continuity errors : sum local = 2.7062e-10, global = -1.11571e-12, cumulative = 4.11314e-08
DICPCG:  Solving for p, Initial residual = 0.00649517, Final residual = 9.68144e-07, No Iterations 760
time step continuity errors : sum local = 8.1746e-13, global = -1.08799e-15, cumulative = 4.11314e-08
ExecutionTime = 3479.43 s  ClockTime = 3481 s

Time = 17.2

Courant Number mean: 0.0146111 max: 0.16008
smoothSolver:  Solving for Ux, Initial residual = 4.2784e-05, Final residual = 8.12421e-06, No Iterations 2
smoothSolver:  Solving for Uy, Initial residual = 0.000231782, Final residual = 6.52202e-06, No Iterations 4
DICPCG:  Solving for p, Initial residual = 0.00648701, Final residual = 0.000321068, No Iterations 198
time step continuity errors : sum local = 2.69784e-10, global = -8.91194e-13, cumulative = 4.11306e-08
DICPCG:  Solving for p, Initial residual = 0.00648362, Final residual = 9.87434e-07, No Iterations 749
time step continuity errors : sum local = 8.25424e-13, global = 1.87623e-16, cumulative = 4.11306e-08
ExecutionTime = 3489.14 s  ClockTime = 3491 s

Time = 17.25

Courant Number mean: 0.0146108 max: 0.159978
smoothSolver:  Solving for Ux, Initial residual = 4.28754e-05, Final residual = 8.09937e-06, No Iterations 2
smoothSolver:  Solving for Uy, Initial residual = 0.000232088, Final residual = 9.75213e-06, No Iterations 3
DICPCG:  Solving for p, Initial residual = 0.00648702, Final residual = 0.000321767, No Iterations 192
time step continuity errors : sum local = 2.6947e-10, global = -1.09052e-12, cumulative = 4.11295e-08
DICPCG:  Solving for p, Initial residual = 0.0064615, Final residual = 9.67685e-07, No Iterations 760
time step continuity errors : sum local = 8.16296e-13, global = -7.465e-16, cumulative = 4.11295e-08
ExecutionTime = 3498.84 s  ClockTime = 3501 s

Time = 17.3

Courant Number mean: 0.0146105 max: 0.159876
smoothSolver:  Solving for Ux, Initial residual = 4.25962e-05, Final residual = 8.07574e-06, No Iterations 2
smoothSolver:  Solving for Uy, Initial residual = 0.000231033, Final residual = 9.99781e-06, No Iterations 3
DICPCG:  Solving for p, Initial residual = 0.00645229, Final residual = 0.000317975, No Iterations 191
time step continuity errors : sum local = 2.66963e-10, global = -7.28264e-13, cumulative = 4.11287e-08
DICPCG:  Solving for p, Initial residual = 0.00647031, Final residual = 9.93987e-07, No Iterations 756
time step continuity errors : sum local = 8.32633e-13, global = 9.51237e-16, cumulative = 4.11287e-08
ExecutionTime = 3508.51 s  ClockTime = 3510 s

Time = 17.35

Courant Number mean: 0.0146101 max: 0.159774
smoothSolver:  Solving for Ux, Initial residual = 4.2534e-05, Final residual = 8.05552e-06, No Iterations 2
smoothSolver:  Solving for Uy, Initial residual = 0.000230604, Final residual = 9.87526e-06, No Iterations 3
DICPCG:  Solving for p, Initial residual = 0.00642252, Final residual = 0.000316502, No Iterations 183
time step continuity errors : sum local = 2.64835e-10, global = -7.03457e-13, cumulative = 4.1128e-08
DICPCG:  Solving for p, Initial residual = 0.00640159, Final residual = 9.7491e-07, No Iterations 759
time step continuity errors : sum local = 8.20582e-13, global = -2.52803e-15, cumulative = 4.1128e-08
ExecutionTime = 3518.14 s  ClockTime = 3520 s

Time = 17.4

Courant Number mean: 0.0146098 max: 0.159672
smoothSolver:  Solving for Ux, Initial residual = 4.24303e-05, Final residual = 8.02546e-06, No Iterations 2
smoothSolver:  Solving for Uy, Initial residual = 0.000230187, Final residual = 9.93536e-06, No Iterations 3
DICPCG:  Solving for p, Initial residual = 0.00639847, Final residual = 0.000316284, No Iterations 190
time step continuity errors : sum local = 2.65371e-10, global = -6.61087e-13, cumulative = 4.11274e-08
DICPCG:  Solving for p, Initial residual = 0.00643171, Final residual = 9.9565e-07, No Iterations 757
time step continuity errors : sum local = 8.33608e-13, global = 1.48199e-16, cumulative = 4.11274e-08
ExecutionTime = 3527.8 s  ClockTime = 3530 s

Time = 17.45

Courant Number mean: 0.0146095 max: 0.15957
smoothSolver:  Solving for Ux, Initial residual = 4.23432e-05, Final residual = 8.00724e-06, No Iterations 2
smoothSolver:  Solving for Uy, Initial residual = 0.000229896, Final residual = 9.84338e-06, No Iterations 3
DICPCG:  Solving for p, Initial residual = 0.00640618, Final residual = 0.000314166, No Iterations 183
time step continuity errors : sum local = 2.62673e-10, global = -7.15674e-13, cumulative = 4.11267e-08
DICPCG:  Solving for p, Initial residual = 0.00638375, Final residual = 9.92202e-07, No Iterations 758
time step continuity errors : sum local = 8.34407e-13, global = -2.42934e-15, cumulative = 4.11267e-08
ExecutionTime = 3537.41 s  ClockTime = 3539 s

Time = 17.5

Courant Number mean: 0.0146092 max: 0.159469
smoothSolver:  Solving for Ux, Initial residual = 4.22512e-05, Final residual = 7.97789e-06, No Iterations 2
smoothSolver:  Solving for Uy, Initial residual = 0.000229492, Final residual = 9.88494e-06, No Iterations 3
DICPCG:  Solving for p, Initial residual = 0.00637275, Final residual = 0.000315624, No Iterations 190
time step continuity errors : sum local = 2.64615e-10, global = -6.59199e-13, cumulative = 4.1126e-08
DICPCG:  Solving for p, Initial residual = 0.00640833, Final residual = 9.90761e-07, No Iterations 757
time step continuity errors : sum local = 8.28884e-13, global = 2.3037e-16, cumulative = 4.1126e-08
ExecutionTime = 3547.08 s  ClockTime = 3549 s

Time = 17.55

Courant Number mean: 0.0146089 max: 0.159367
smoothSolver:  Solving for Ux, Initial residual = 4.21631e-05, Final residual = 7.95993e-06, No Iterations 2
smoothSolver:  Solving for Uy, Initial residual = 0.000229211, Final residual = 9.79908e-06, No Iterations 3
DICPCG:  Solving for p, Initial residual = 0.0063854, Final residual = 0.000319046, No Iterations 182
time step continuity errors : sum local = 2.6655e-10, global = -6.93154e-13, cumulative = 4.11253e-08
DICPCG:  Solving for p, Initial residual = 0.00636286, Final residual = 9.85808e-07, No Iterations 758
time step continuity errors : sum local = 8.2835e-13, global = -2.38237e-15, cumulative = 4.11253e-08
ExecutionTime = 3556.85 s  ClockTime = 3559 s

Time = 17.6

Courant Number mean: 0.0146085 max: 0.159266
smoothSolver:  Solving for Ux, Initial residual = 4.20717e-05, Final residual = 7.93095e-06, No Iterations 2
smoothSolver:  Solving for Uy, Initial residual = 0.000228787, Final residual = 9.83897e-06, No Iterations 3
DICPCG:  Solving for p, Initial residual = 0.0063465, Final residual = 0.000315536, No Iterations 190
time step continuity errors : sum local = 2.64338e-10, global = -6.60982e-13, cumulative = 4.11246e-08
DICPCG:  Solving for p, Initial residual = 0.00638449, Final residual = 9.81693e-07, No Iterations 757
time step continuity errors : sum local = 8.20635e-13, global = 3.81551e-16, cumulative = 4.11246e-08
ExecutionTime = 3566.75 s  ClockTime = 3569 s

Time = 17.65

Courant Number mean: 0.0146082 max: 0.159165
smoothSolver:  Solving for Ux, Initial residual = 4.19861e-05, Final residual = 7.91315e-06, No Iterations 2
smoothSolver:  Solving for Uy, Initial residual = 0.000228538, Final residual = 9.75362e-06, No Iterations 3
DICPCG:  Solving for p, Initial residual = 0.00636266, Final residual = 0.000317508, No Iterations 182
time step continuity errors : sum local = 2.65062e-10, global = -6.93212e-13, cumulative = 4.11239e-08
DICPCG:  Solving for p, Initial residual = 0.00634064, Final residual = 9.80459e-07, No Iterations 758
time step continuity errors : sum local = 8.23222e-13, global = -2.38441e-15, cumulative = 4.11239e-08
ExecutionTime = 3576.58 s  ClockTime = 3578 s

Time = 17.7

Courant Number mean: 0.0146079 max: 0.159065
smoothSolver:  Solving for Ux, Initial residual = 4.18956e-05, Final residual = 7.88455e-06, No Iterations 2
smoothSolver:  Solving for Uy, Initial residual = 0.000228111, Final residual = 9.79289e-06, No Iterations 3
DICPCG:  Solving for p, Initial residual = 0.00632302, Final residual = 0.00031471, No Iterations 190
time step continuity errors : sum local = 2.63447e-10, global = -6.61143e-13, cumulative = 4.11233e-08
DICPCG:  Solving for p, Initial residual = 0.00636215, Final residual = 9.99705e-07, No Iterations 756
time step continuity errors : sum local = 8.35036e-13, global = 3.04851e-16, cumulative = 4.11233e-08
ExecutionTime = 3586.35 s  ClockTime = 3588 s

Time = 17.75

Courant Number mean: 0.0146076 max: 0.158964
smoothSolver:  Solving for Ux, Initial residual = 4.18109e-05, Final residual = 7.86703e-06, No Iterations 2
smoothSolver:  Solving for Uy, Initial residual = 0.000227867, Final residual = 9.70804e-06, No Iterations 3
DICPCG:  Solving for p, Initial residual = 0.00633927, Final residual = 0.000315077, No Iterations 182
time step continuity errors : sum local = 2.62833e-10, global = -6.92963e-13, cumulative = 4.11226e-08
