/*---------------------------------------------------------------------------*\
  =========                 |
  \\      /  F ield         | OpenFOAM: The Open Source CFD Toolbox
   \\    /   O peration     | Website:  https://openfoam.org
    \\  /    A nd           | Version:  7
     \\/     M anipulation  |
\*---------------------------------------------------------------------------*/
Build  : 7-49b2b3b8b082
Exec   : icoFoam
Date   : May 14 2021
Time   : 15:56:21
Host   : "c401-094.stampede2.tacc.utexas.edu"
PID    : 184979
I/O    : uncollated
Case   : /scratch/07958/rbais/COE347/finalProject/box1
nProcs : 1
sigFpe : Enabling floating point exception trapping (FOAM_SIGFPE).
fileModificationChecking : Monitoring run-time modified files using timeStampMaster (fileModificationSkew 10)
allowSystemOperations : Allowing user-supplied system call operations

// * * * * * * * * * * * * * * * * * * * * * * * * * * * * * * * * * * * * * //
Create time

Create mesh for time = 0

Reading transportProperties

Reading field p

Reading field U

Reading/calculating face flux field phi


Starting time loop

Time = 0.05

Courant Number mean: 0.00700903 max: 0.141594
smoothSolver:  Solving for Ux, Initial residual = 1, Final residual = 6.445e-06, No Iterations 18
smoothSolver:  Solving for Uy, Initial residual = 0, Final residual = 0, No Iterations 0
DICPCG:  Solving for p, Initial residual = 1, Final residual = 0.0485153, No Iterations 360
time step continuity errors : sum local = 1.27087e-07, global = 7.97829e-10, cumulative = 7.97829e-10
DICPCG:  Solving for p, Initial residual = 0.169687, Final residual = 9.45543e-07, No Iterations 479
time step continuity errors : sum local = 3.29693e-11, global = 2.67206e-13, cumulative = 7.98096e-10
ExecutionTime = 2.2 s  ClockTime = 2 s

Time = 0.1

Courant Number mean: 0.00705395 max: 0.217908
smoothSolver:  Solving for Ux, Initial residual = 0.20911, Final residual = 7.81007e-06, No Iterations 12
smoothSolver:  Solving for Uy, Initial residual = 0.294455, Final residual = 5.95124e-06, No Iterations 12
DICPCG:  Solving for p, Initial residual = 0.148601, Final residual = 0.00738507, No Iterations 342
time step continuity errors : sum local = 2.88072e-07, global = -3.06896e-09, cumulative = -2.27086e-09
DICPCG:  Solving for p, Initial residual = 0.468803, Final residual = 9.16463e-07, No Iterations 495
time step continuity errors : sum local = 1.23134e-11, global = -1.12899e-13, cumulative = -2.27097e-09
ExecutionTime = 3.77 s  ClockTime = 4 s

Time = 0.15

Courant Number mean: 0.00707989 max: 0.233452
smoothSolver:  Solving for Ux, Initial residual = 0.0627226, Final residual = 9.66255e-06, No Iterations 11
smoothSolver:  Solving for Uy, Initial residual = 0.0643982, Final residual = 6.74839e-06, No Iterations 10
DICPCG:  Solving for p, Initial residual = 0.44278, Final residual = 0.0212727, No Iterations 115
time step continuity errors : sum local = 2.20955e-07, global = -1.18528e-09, cumulative = -3.45625e-09
DICPCG:  Solving for p, Initial residual = 0.278177, Final residual = 9.6677e-07, No Iterations 465
time step continuity errors : sum local = 8.21121e-12, global = -5.12573e-14, cumulative = -3.4563e-09
ExecutionTime = 4.89 s  ClockTime = 5 s

Time = 0.2

Courant Number mean: 0.00706875 max: 0.196734
smoothSolver:  Solving for Ux, Initial residual = 0.0170974, Final residual = 5.50876e-06, No Iterations 10
smoothSolver:  Solving for Uy, Initial residual = 0.0203706, Final residual = 8.00717e-06, No Iterations 7
DICPCG:  Solving for p, Initial residual = 0.23355, Final residual = 0.0115348, No Iterations 115
time step continuity errors : sum local = 5.65928e-08, global = 7.63326e-10, cumulative = -2.69298e-09
DICPCG:  Solving for p, Initial residual = 0.13854, Final residual = 9.73601e-07, No Iterations 462
time step continuity errors : sum local = 4.11499e-12, global = 5.02565e-14, cumulative = -2.69293e-09
ExecutionTime = 5.99 s  ClockTime = 6 s

Time = 0.25

Courant Number mean: 0.00706465 max: 0.186826
smoothSolver:  Solving for Ux, Initial residual = 0.00598995, Final residual = 6.9915e-06, No Iterations 9
smoothSolver:  Solving for Uy, Initial residual = 0.00733542, Final residual = 7.57706e-06, No Iterations 7
DICPCG:  Solving for p, Initial residual = 0.131982, Final residual = 0.00645258, No Iterations 97
time step continuity errors : sum local = 1.74214e-08, global = -1.33319e-10, cumulative = -2.82625e-09
DICPCG:  Solving for p, Initial residual = 0.0607534, Final residual = 9.41229e-07, No Iterations 441
time step continuity errors : sum local = 2.60882e-12, global = -2.81914e-14, cumulative = -2.82628e-09
ExecutionTime = 7.03 s  ClockTime = 7 s

Time = 0.3

Courant Number mean: 0.00706036 max: 0.177813
smoothSolver:  Solving for Ux, Initial residual = 0.00486198, Final residual = 8.80619e-06, No Iterations 8
smoothSolver:  Solving for Uy, Initial residual = 0.00751984, Final residual = 5.6222e-06, No Iterations 7
DICPCG:  Solving for p, Initial residual = 0.0581505, Final residual = 0.00281377, No Iterations 97
time step continuity errors : sum local = 7.95884e-09, global = 1.314e-11, cumulative = -2.81314e-09
DICPCG:  Solving for p, Initial residual = 0.0208837, Final residual = 9.78767e-07, No Iterations 423
time step continuity errors : sum local = 2.70773e-12, global = -1.93667e-14, cumulative = -2.81315e-09
ExecutionTime = 8.04 s  ClockTime = 8 s

Time = 0.35

Courant Number mean: 0.00705673 max: 0.172325
smoothSolver:  Solving for Ux, Initial residual = 0.00369517, Final residual = 6.6251e-06, No Iterations 8
smoothSolver:  Solving for Uy, Initial residual = 0.00636735, Final residual = 9.21181e-06, No Iterations 6
DICPCG:  Solving for p, Initial residual = 0.0401531, Final residual = 0.00198242, No Iterations 94
time step continuity errors : sum local = 5.23658e-09, global = -4.27324e-12, cumulative = -2.81743e-09
DICPCG:  Solving for p, Initial residual = 0.0104696, Final residual = 9.92489e-07, No Iterations 416
time step continuity errors : sum local = 2.60981e-12, global = -1.43046e-14, cumulative = -2.81744e-09
ExecutionTime = 9.02 s  ClockTime = 9 s

Time = 0.4

Courant Number mean: 0.00705345 max: 0.169015
smoothSolver:  Solving for Ux, Initial residual = 0.00303727, Final residual = 9.60316e-06, No Iterations 7
smoothSolver:  Solving for Uy, Initial residual = 0.00579458, Final residual = 8.02344e-06, No Iterations 6
DICPCG:  Solving for p, Initial residual = 0.0313887, Final residual = 0.00154295, No Iterations 96
time step continuity errors : sum local = 3.9759e-09, global = 4.77481e-13, cumulative = -2.81696e-09
DICPCG:  Solving for p, Initial residual = 0.00726692, Final residual = 9.89288e-07, No Iterations 417
time step continuity errors : sum local = 2.51948e-12, global = 1.13343e-14, cumulative = -2.81695e-09
ExecutionTime = 9.99 s  ClockTime = 10 s

Time = 0.45

Courant Number mean: 0.00705046 max: 0.168398
smoothSolver:  Solving for Ux, Initial residual = 0.00257219, Final residual = 7.82951e-06, No Iterations 7
smoothSolver:  Solving for Uy, Initial residual = 0.00529989, Final residual = 7.12569e-06, No Iterations 6
DICPCG:  Solving for p, Initial residual = 0.0267774, Final residual = 0.00130128, No Iterations 90
time step continuity errors : sum local = 3.24126e-09, global = -2.82427e-13, cumulative = -2.81724e-09
DICPCG:  Solving for p, Initial residual = 0.00573446, Final residual = 8.96834e-07, No Iterations 413
time step continuity errors : sum local = 2.21959e-12, global = -1.30441e-14, cumulative = -2.81725e-09
ExecutionTime = 10.96 s  ClockTime = 11 s

Time = 0.5

Courant Number mean: 0.0070477 max: 0.167779
smoothSolver:  Solving for Ux, Initial residual = 0.00224049, Final residual = 6.53946e-06, No Iterations 7
smoothSolver:  Solving for Uy, Initial residual = 0.0049278, Final residual = 6.38415e-06, No Iterations 6
DICPCG:  Solving for p, Initial residual = 0.023322, Final residual = 0.00113483, No Iterations 90
time step continuity errors : sum local = 2.76194e-09, global = 5.56343e-13, cumulative = -2.81669e-09
DICPCG:  Solving for p, Initial residual = 0.00499843, Final residual = 9.90518e-07, No Iterations 371
time step continuity errors : sum local = 2.39024e-12, global = -3.2605e-14, cumulative = -2.81673e-09
ExecutionTime = 11.86 s  ClockTime = 12 s

Time = 0.55

Courant Number mean: 0.00704513 max: 0.166904
smoothSolver:  Solving for Ux, Initial residual = 0.00198566, Final residual = 5.56322e-06, No Iterations 7
smoothSolver:  Solving for Uy, Initial residual = 0.00461749, Final residual = 5.76621e-06, No Iterations 6
DICPCG:  Solving for p, Initial residual = 0.0207768, Final residual = 0.00102573, No Iterations 83
time step continuity errors : sum local = 2.43466e-09, global = 3.83794e-13, cumulative = -2.81634e-09
DICPCG:  Solving for p, Initial residual = 0.00430367, Final residual = 8.76887e-07, No Iterations 411
time step continuity errors : sum local = 2.06832e-12, global = -7.48596e-16, cumulative = -2.81634e-09
ExecutionTime = 12.81 s  ClockTime = 13 s

Time = 0.6

Courant Number mean: 0.00704271 max: 0.165842
smoothSolver:  Solving for Ux, Initial residual = 0.00178438, Final residual = 8.95792e-06, No Iterations 6
smoothSolver:  Solving for Uy, Initial residual = 0.00435455, Final residual = 5.23822e-06, No Iterations 6
DICPCG:  Solving for p, Initial residual = 0.0186524, Final residual = 0.000925788, No Iterations 90
time step continuity errors : sum local = 2.1533e-09, global = 5.30633e-13, cumulative = -2.81581e-09
DICPCG:  Solving for p, Initial residual = 0.00411931, Final residual = 9.71931e-07, No Iterations 410
time step continuity errors : sum local = 2.24414e-12, global = 9.51402e-15, cumulative = -2.8158e-09
ExecutionTime = 13.76 s  ClockTime = 14 s

Time = 0.65

Courant Number mean: 0.00704045 max: 0.164646
smoothSolver:  Solving for Ux, Initial residual = 0.00161881, Final residual = 7.86978e-06, No Iterations 6
smoothSolver:  Solving for Uy, Initial residual = 0.00411846, Final residual = 9.20194e-06, No Iterations 5
DICPCG:  Solving for p, Initial residual = 0.0169975, Final residual = 0.000848517, No Iterations 81
time step continuity errors : sum local = 1.93187e-09, global = 3.19858e-13, cumulative = -2.81548e-09
DICPCG:  Solving for p, Initial residual = 0.00374467, Final residual = 9.84571e-07, No Iterations 409
time step continuity errors : sum local = 2.22865e-12, global = -3.88712e-15, cumulative = -2.81549e-09
ExecutionTime = 14.68 s  ClockTime = 15 s

Time = 0.7

Courant Number mean: 0.0070383 max: 0.163364
smoothSolver:  Solving for Ux, Initial residual = 0.00148485, Final residual = 6.97959e-06, No Iterations 6
smoothSolver:  Solving for Uy, Initial residual = 0.00392458, Final residual = 8.49535e-06, No Iterations 5
DICPCG:  Solving for p, Initial residual = 0.015523, Final residual = 0.00075712, No Iterations 81
time step continuity errors : sum local = 1.69362e-09, global = 3.81033e-13, cumulative = -2.8151e-09
DICPCG:  Solving for p, Initial residual = 0.00347758, Final residual = 9.60495e-07, No Iterations 408
time step continuity errors : sum local = 2.13508e-12, global = 5.46764e-15, cumulative = -2.8151e-09
ExecutionTime = 15.62 s  ClockTime = 16 s

Time = 0.75

Courant Number mean: 0.00703625 max: 0.162021
smoothSolver:  Solving for Ux, Initial residual = 0.00137231, Final residual = 6.24565e-06, No Iterations 6
smoothSolver:  Solving for Uy, Initial residual = 0.00375404, Final residual = 7.8639e-06, No Iterations 5
DICPCG:  Solving for p, Initial residual = 0.0142343, Final residual = 0.00069349, No Iterations 81
time step continuity errors : sum local = 1.52386e-09, global = 3.23699e-13, cumulative = -2.81478e-09
DICPCG:  Solving for p, Initial residual = 0.00318174, Final residual = 9.42469e-07, No Iterations 407
time step continuity errors : sum local = 2.05983e-12, global = -2.0118e-15, cumulative = -2.81478e-09
ExecutionTime = 16.55 s  ClockTime = 17 s

Time = 0.8

Courant Number mean: 0.00703428 max: 0.16064
smoothSolver:  Solving for Ux, Initial residual = 0.00127634, Final residual = 5.63327e-06, No Iterations 6
smoothSolver:  Solving for Uy, Initial residual = 0.00360226, Final residual = 7.30767e-06, No Iterations 5
DICPCG:  Solving for p, Initial residual = 0.0131585, Final residual = 0.00064831, No Iterations 80
time step continuity errors : sum local = 1.40238e-09, global = 3.0572e-13, cumulative = -2.81447e-09
DICPCG:  Solving for p, Initial residual = 0.00295669, Final residual = 9.83225e-07, No Iterations 405
time step continuity errors : sum local = 2.1148e-12, global = -1.24274e-15, cumulative = -2.81447e-09
ExecutionTime = 17.47 s  ClockTime = 18 s

Time = 0.85

Courant Number mean: 0.0070324 max: 0.15924
smoothSolver:  Solving for Ux, Initial residual = 0.00119323, Final residual = 9.74152e-06, No Iterations 5
smoothSolver:  Solving for Uy, Initial residual = 0.00346507, Final residual = 6.81329e-06, No Iterations 5
DICPCG:  Solving for p, Initial residual = 0.0123648, Final residual = 0.000610276, No Iterations 94
time step continuity errors : sum local = 1.29936e-09, global = 3.56045e-13, cumulative = -2.81412e-09
DICPCG:  Solving for p, Initial residual = 0.00328213, Final residual = 9.55899e-07, No Iterations 406
time step continuity errors : sum local = 2.02502e-12, global = -1.24161e-14, cumulative = -2.81413e-09
ExecutionTime = 18.42 s  ClockTime = 19 s

Time = 0.9

Courant Number mean: 0.00703061 max: 0.157838
smoothSolver:  Solving for Ux, Initial residual = 0.00111749, Final residual = 8.94936e-06, No Iterations 5
smoothSolver:  Solving for Uy, Initial residual = 0.00332564, Final residual = 6.38275e-06, No Iterations 5
DICPCG:  Solving for p, Initial residual = 0.0115836, Final residual = 0.000577843, No Iterations 80
time step continuity errors : sum local = 1.21166e-09, global = 2.24702e-13, cumulative = -2.81391e-09
DICPCG:  Solving for p, Initial residual = 0.002977, Final residual = 9.49571e-07, No Iterations 405
time step continuity errors : sum local = 1.9809e-12, global = -1.05454e-14, cumulative = -2.81392e-09
ExecutionTime = 19.34 s  ClockTime = 20 s

Time = 0.95

Courant Number mean: 0.00702887 max: 0.156439
smoothSolver:  Solving for Ux, Initial residual = 0.00105454, Final residual = 8.24554e-06, No Iterations 5
smoothSolver:  Solving for Uy, Initial residual = 0.00321467, Final residual = 5.98077e-06, No Iterations 5
DICPCG:  Solving for p, Initial residual = 0.0108171, Final residual = 0.000538796, No Iterations 81
time step continuity errors : sum local = 1.11393e-09, global = 2.72572e-13, cumulative = -2.81364e-09
DICPCG:  Solving for p, Initial residual = 0.0028407, Final residual = 9.71725e-07, No Iterations 404
time step continuity errors : sum local = 1.99926e-12, global = -3.71603e-15, cumulative = -2.81365e-09
ExecutionTime = 20.25 s  ClockTime = 21 s

Time = 1

Courant Number mean: 0.00702719 max: 0.155054
smoothSolver:  Solving for Ux, Initial residual = 0.000998218, Final residual = 7.63399e-06, No Iterations 5
smoothSolver:  Solving for Uy, Initial residual = 0.00311175, Final residual = 5.629e-06, No Iterations 5
DICPCG:  Solving for p, Initial residual = 0.0102792, Final residual = 0.000505241, No Iterations 81
time step continuity errors : sum local = 1.03054e-09, global = 2.55298e-13, cumulative = -2.81339e-09
DICPCG:  Solving for p, Initial residual = 0.00269489, Final residual = 9.7903e-07, No Iterations 403
time step continuity errors : sum local = 1.98723e-12, global = 3.24763e-15, cumulative = -2.81339e-09
ExecutionTime = 21.83 s  ClockTime = 22 s

Time = 1.05

Courant Number mean: 0.00702557 max: 0.153687
smoothSolver:  Solving for Ux, Initial residual = 0.000947837, Final residual = 7.09691e-06, No Iterations 5
smoothSolver:  Solving for Uy, Initial residual = 0.00301694, Final residual = 5.30662e-06, No Iterations 5
DICPCG:  Solving for p, Initial residual = 0.00979368, Final residual = 0.000481448, No Iterations 81
time step continuity errors : sum local = 9.69188e-10, global = 2.40548e-13, cumulative = -2.81315e-09
DICPCG:  Solving for p, Initial residual = 0.00257914, Final residual = 9.298e-07, No Iterations 403
time step continuity errors : sum local = 1.8632e-12, global = 2.49036e-15, cumulative = -2.81315e-09
ExecutionTime = 22.75 s  ClockTime = 23 s

Time = 1.1

Courant Number mean: 0.007024 max: 0.152342
smoothSolver:  Solving for Ux, Initial residual = 0.000902357, Final residual = 6.62278e-06, No Iterations 5
smoothSolver:  Solving for Uy, Initial residual = 0.00292858, Final residual = 5.01366e-06, No Iterations 5
DICPCG:  Solving for p, Initial residual = 0.00941318, Final residual = 0.000459757, No Iterations 81
time step continuity errors : sum local = 9.13841e-10, global = 2.21927e-13, cumulative = -2.81292e-09
DICPCG:  Solving for p, Initial residual = 0.00248269, Final residual = 9.51438e-07, No Iterations 402
time step continuity errors : sum local = 1.88226e-12, global = 8.01522e-15, cumulative = -2.81292e-09
ExecutionTime = 23.66 s  ClockTime = 24 s

Time = 1.15

Courant Number mean: 0.00702247 max: 0.151022
smoothSolver:  Solving for Ux, Initial residual = 0.000861043, Final residual = 6.20137e-06, No Iterations 5
smoothSolver:  Solving for Uy, Initial residual = 0.00284665, Final residual = 9.59268e-06, No Iterations 4
DICPCG:  Solving for p, Initial residual = 0.00912145, Final residual = 0.000453449, No Iterations 84
time step continuity errors : sum local = 8.90093e-10, global = 2.04701e-13, cumulative = -2.81271e-09
DICPCG:  Solving for p, Initial residual = 0.00256579, Final residual = 9.2653e-07, No Iterations 403
time step continuity errors : sum local = 1.81055e-12, global = -2.50283e-15, cumulative = -2.81271e-09
ExecutionTime = 24.57 s  ClockTime = 25 s

Time = 1.2

Courant Number mean: 0.00702099 max: 0.149738
smoothSolver:  Solving for Ux, Initial residual = 0.000823043, Final residual = 5.82574e-06, No Iterations 5
smoothSolver:  Solving for Uy, Initial residual = 0.00276908, Final residual = 9.15776e-06, No Iterations 4
DICPCG:  Solving for p, Initial residual = 0.00873397, Final residual = 0.000423151, No Iterations 81
time step continuity errors : sum local = 8.20604e-10, global = 2.02073e-13, cumulative = -2.81251e-09
DICPCG:  Solving for p, Initial residual = 0.00244156, Final residual = 9.75486e-07, No Iterations 402
time step continuity errors : sum local = 1.88342e-12, global = 1.42744e-15, cumulative = -2.81251e-09
ExecutionTime = 25.49 s  ClockTime = 26 s

Time = 1.25

Courant Number mean: 0.00701954 max: 0.148479
smoothSolver:  Solving for Ux, Initial residual = 0.00078862, Final residual = 5.4882e-06, No Iterations 5
smoothSolver:  Solving for Uy, Initial residual = 0.00269683, Final residual = 8.71498e-06, No Iterations 4
DICPCG:  Solving for p, Initial residual = 0.0084879, Final residual = 0.00041218, No Iterations 81
time step continuity errors : sum local = 7.89952e-10, global = 1.91041e-13, cumulative = -2.81232e-09
DICPCG:  Solving for p, Initial residual = 0.00240476, Final residual = 9.3207e-07, No Iterations 402
time step continuity errors : sum local = 1.77854e-12, global = 7.41647e-16, cumulative = -2.81232e-09
ExecutionTime = 26.41 s  ClockTime = 27 s

Time = 1.3

Courant Number mean: 0.00701813 max: 0.147248
smoothSolver:  Solving for Ux, Initial residual = 0.000756919, Final residual = 5.18342e-06, No Iterations 5
smoothSolver:  Solving for Uy, Initial residual = 0.00262888, Final residual = 8.31277e-06, No Iterations 4
DICPCG:  Solving for p, Initial residual = 0.00817666, Final residual = 0.000405437, No Iterations 80
time step continuity errors : sum local = 7.68156e-10, global = 1.6923e-13, cumulative = -2.81215e-09
DICPCG:  Solving for p, Initial residual = 0.00232343, Final residual = 9.63822e-07, No Iterations 401
time step continuity errors : sum local = 1.81841e-12, global = 4.65708e-15, cumulative = -2.81214e-09
ExecutionTime = 27.32 s  ClockTime = 28 s

Time = 1.35

Courant Number mean: 0.00701676 max: 0.146045
smoothSolver:  Solving for Ux, Initial residual = 0.000727649, Final residual = 9.71356e-06, No Iterations 4
smoothSolver:  Solving for Uy, Initial residual = 0.00256412, Final residual = 7.93581e-06, No Iterations 4
DICPCG:  Solving for p, Initial residual = 0.00825283, Final residual = 0.000396311, No Iterations 98
time step continuity errors : sum local = 7.42501e-10, global = 2.48928e-13, cumulative = -2.81189e-09
DICPCG:  Solving for p, Initial residual = 0.0031358, Final residual = 9.90985e-07, No Iterations 357
time step continuity errors : sum local = 1.84903e-12, global = -5.14612e-14, cumulative = -2.81195e-09
ExecutionTime = 28.19 s  ClockTime = 28 s

Time = 1.4

Courant Number mean: 0.00701543 max: 0.144875
smoothSolver:  Solving for Ux, Initial residual = 0.000696918, Final residual = 9.28015e-06, No Iterations 4
smoothSolver:  Solving for Uy, Initial residual = 0.0024835, Final residual = 7.60042e-06, No Iterations 4
DICPCG:  Solving for p, Initial residual = 0.00797562, Final residual = 0.000391648, No Iterations 89
time step continuity errors : sum local = 7.24925e-10, global = -1.14178e-13, cumulative = -2.81206e-09
DICPCG:  Solving for p, Initial residual = 0.00286053, Final residual = 9.56222e-07, No Iterations 401
time step continuity errors : sum local = 1.76313e-12, global = -6.06009e-15, cumulative = -2.81207e-09
ExecutionTime = 29.1 s  ClockTime = 29 s

Time = 1.45

Courant Number mean: 0.00701413 max: 0.143732
smoothSolver:  Solving for Ux, Initial residual = 0.00067275, Final residual = 8.84585e-06, No Iterations 4
smoothSolver:  Solving for Uy, Initial residual = 0.00242984, Final residual = 7.27862e-06, No Iterations 4
DICPCG:  Solving for p, Initial residual = 0.00776876, Final residual = 0.000388334, No Iterations 90
time step continuity errors : sum local = 7.11436e-10, global = 1.5549e-13, cumulative = -2.81191e-09
DICPCG:  Solving for p, Initial residual = 0.0028372, Final residual = 9.61198e-07, No Iterations 401
time step continuity errors : sum local = 1.75407e-12, global = 5.05372e-17, cumulative = -2.81191e-09
ExecutionTime = 30.02 s  ClockTime = 30 s

Time = 1.5

Courant Number mean: 0.00701286 max: 0.142617
smoothSolver:  Solving for Ux, Initial residual = 0.000649568, Final residual = 8.44902e-06, No Iterations 4
smoothSolver:  Solving for Uy, Initial residual = 0.00237563, Final residual = 6.97745e-06, No Iterations 4
DICPCG:  Solving for p, Initial residual = 0.00759041, Final residual = 0.000377938, No Iterations 90
time step continuity errors : sum local = 6.85173e-10, global = 1.02689e-13, cumulative = -2.81181e-09
DICPCG:  Solving for p, Initial residual = 0.00277163, Final residual = 9.54449e-07, No Iterations 400
time step continuity errors : sum local = 1.72379e-12, global = -1.24646e-15, cumulative = -2.81181e-09
ExecutionTime = 30.94 s  ClockTime = 31 s

Time = 1.55

Courant Number mean: 0.00701161 max: 0.141528
smoothSolver:  Solving for Ux, Initial residual = 0.000627946, Final residual = 8.08191e-06, No Iterations 4
smoothSolver:  Solving for Uy, Initial residual = 0.00232425, Final residual = 6.69494e-06, No Iterations 4
DICPCG:  Solving for p, Initial residual = 0.00742796, Final residual = 0.000367702, No Iterations 90
time step continuity errors : sum local = 6.59851e-10, global = 1.02358e-13, cumulative = -2.81171e-09
DICPCG:  Solving for p, Initial residual = 0.00271339, Final residual = 9.6463e-07, No Iterations 400
time step continuity errors : sum local = 1.7245e-12, global = 4.2909e-16, cumulative = -2.81171e-09
ExecutionTime = 31.85 s  ClockTime = 32 s

Time = 1.6

Courant Number mean: 0.00701038 max: 0.140466
smoothSolver:  Solving for Ux, Initial residual = 0.000607622, Final residual = 7.74153e-06, No Iterations 4
smoothSolver:  Solving for Uy, Initial residual = 0.00227497, Final residual = 6.43213e-06, No Iterations 4
DICPCG:  Solving for p, Initial residual = 0.00721191, Final residual = 0.000358694, No Iterations 90
time step continuity errors : sum local = 6.37269e-10, global = 9.62871e-14, cumulative = -2.81161e-09
DICPCG:  Solving for p, Initial residual = 0.00265403, Final residual = 9.97027e-07, No Iterations 399
time step continuity errors : sum local = 1.76494e-12, global = -7.29189e-16, cumulative = -2.81161e-09
ExecutionTime = 32.77 s  ClockTime = 33 s

Time = 1.65

Courant Number mean: 0.00700918 max: 0.139429
smoothSolver:  Solving for Ux, Initial residual = 0.00058849, Final residual = 7.42527e-06, No Iterations 4
smoothSolver:  Solving for Uy, Initial residual = 0.00222775, Final residual = 6.18552e-06, No Iterations 4
DICPCG:  Solving for p, Initial residual = 0.00712807, Final residual = 0.000353971, No Iterations 90
time step continuity errors : sum local = 6.22797e-10, global = 9.2024e-14, cumulative = -2.81152e-09
DICPCG:  Solving for p, Initial residual = 0.00261098, Final residual = 9.15706e-07, No Iterations 400
time step continuity errors : sum local = 1.60538e-12, global = 3.70743e-16, cumulative = -2.81152e-09
ExecutionTime = 33.69 s  ClockTime = 34 s

Time = 1.7

Courant Number mean: 0.00700801 max: 0.138417
smoothSolver:  Solving for Ux, Initial residual = 0.000570427, Final residual = 7.13076e-06, No Iterations 4
smoothSolver:  Solving for Uy, Initial residual = 0.00218229, Final residual = 5.95414e-06, No Iterations 4
DICPCG:  Solving for p, Initial residual = 0.007031, Final residual = 0.000348798, No Iterations 90
time step continuity errors : sum local = 6.07849e-10, global = 8.99235e-14, cumulative = -2.81143e-09
DICPCG:  Solving for p, Initial residual = 0.00257372, Final residual = 9.54815e-07, No Iterations 399
time step continuity errors : sum local = 1.65814e-12, global = -1.41907e-16, cumulative = -2.81143e-09
ExecutionTime = 34.61 s  ClockTime = 35 s

Time = 1.75

Courant Number mean: 0.00700685 max: 0.137429
smoothSolver:  Solving for Ux, Initial residual = 0.000553352, Final residual = 6.85587e-06, No Iterations 4
smoothSolver:  Solving for Uy, Initial residual = 0.00213877, Final residual = 5.73679e-06, No Iterations 4
DICPCG:  Solving for p, Initial residual = 0.00686472, Final residual = 0.000340715, No Iterations 90
time step continuity errors : sum local = 5.88245e-10, global = 8.66996e-14, cumulative = -2.81134e-09
DICPCG:  Solving for p, Initial residual = 0.00252408, Final residual = 9.88676e-07, No Iterations 398
time step continuity errors : sum local = 1.70107e-12, global = -2.90202e-16, cumulative = -2.81134e-09
ExecutionTime = 35.52 s  ClockTime = 36 s

Time = 1.8

Courant Number mean: 0.00700571 max: 0.136464
smoothSolver:  Solving for Ux, Initial residual = 0.000537192, Final residual = 6.59878e-06, No Iterations 4
smoothSolver:  Solving for Uy, Initial residual = 0.00209679, Final residual = 5.53292e-06, No Iterations 4
DICPCG:  Solving for p, Initial residual = 0.0067841, Final residual = 0.000337055, No Iterations 90
time step continuity errors : sum local = 5.76561e-10, global = 8.17099e-14, cumulative = -2.81126e-09
DICPCG:  Solving for p, Initial residual = 0.00249534, Final residual = 9.6027e-07, No Iterations 398
time step continuity errors : sum local = 1.63699e-12, global = -5.11941e-16, cumulative = -2.81126e-09
ExecutionTime = 36.43 s  ClockTime = 37 s

Time = 1.85

Courant Number mean: 0.0070046 max: 0.135521
smoothSolver:  Solving for Ux, Initial residual = 0.000521876, Final residual = 6.35771e-06, No Iterations 4
smoothSolver:  Solving for Uy, Initial residual = 0.0020563, Final residual = 5.33937e-06, No Iterations 4
DICPCG:  Solving for p, Initial residual = 0.00663453, Final residual = 0.000327264, No Iterations 90
time step continuity errors : sum local = 5.54754e-10, global = 8.11514e-14, cumulative = -2.81118e-09
DICPCG:  Solving for p, Initial residual = 0.00244459, Final residual = 9.99918e-07, No Iterations 397
time step continuity errors : sum local = 1.68937e-12, global = -9.58141e-17, cumulative = -2.81118e-09
ExecutionTime = 37.33 s  ClockTime = 38 s

Time = 1.9

Courant Number mean: 0.0070035 max: 0.1346
smoothSolver:  Solving for Ux, Initial residual = 0.000507322, Final residual = 6.13109e-06, No Iterations 4
smoothSolver:  Solving for Uy, Initial residual = 0.00201732, Final residual = 5.15775e-06, No Iterations 4
DICPCG:  Solving for p, Initial residual = 0.00651283, Final residual = 0.000320735, No Iterations 90
time step continuity errors : sum local = 5.38864e-10, global = 7.66289e-14, cumulative = -2.8111e-09
DICPCG:  Solving for p, Initial residual = 0.00240138, Final residual = 9.81735e-07, No Iterations 397
time step continuity errors : sum local = 1.64394e-12, global = -4.60833e-16, cumulative = -2.8111e-09
ExecutionTime = 38.24 s  ClockTime = 39 s

Time = 1.95

Courant Number mean: 0.00700243 max: 0.1337
smoothSolver:  Solving for Ux, Initial residual = 0.000493477, Final residual = 5.91795e-06, No Iterations 4
smoothSolver:  Solving for Uy, Initial residual = 0.00197967, Final residual = 4.98658e-06, No Iterations 4
DICPCG:  Solving for p, Initial residual = 0.00642387, Final residual = 0.000315565, No Iterations 90
time step continuity errors : sum local = 5.25498e-10, global = 7.37486e-14, cumulative = -2.81103e-09
DICPCG:  Solving for p, Initial residual = 0.00236789, Final residual = 9.58803e-07, No Iterations 397
time step continuity errors : sum local = 1.59138e-12, global = 2.23314e-16, cumulative = -2.81103e-09
ExecutionTime = 39.15 s  ClockTime = 39 s

Time = 2

Courant Number mean: 0.00700137 max: 0.13282
smoothSolver:  Solving for Ux, Initial residual = 0.000480292, Final residual = 5.71671e-06, No Iterations 4
smoothSolver:  Solving for Uy, Initial residual = 0.00194326, Final residual = 4.82361e-06, No Iterations 4
DICPCG:  Solving for p, Initial residual = 0.00626104, Final residual = 0.000309867, No Iterations 90
time step continuity errors : sum local = 5.11524e-10, global = 7.10916e-14, cumulative = -2.81096e-09
DICPCG:  Solving for p, Initial residual = 0.00232439, Final residual = 9.55412e-07, No Iterations 397
time step continuity errors : sum local = 1.57211e-12, global = -3.25992e-17, cumulative = -2.81096e-09
ExecutionTime = 40.71 s  ClockTime = 41 s

Time = 2.05

Courant Number mean: 0.00700033 max: 0.131959
smoothSolver:  Solving for Ux, Initial residual = 0.000467711, Final residual = 5.52673e-06, No Iterations 4
smoothSolver:  Solving for Uy, Initial residual = 0.00190802, Final residual = 4.67043e-06, No Iterations 4
DICPCG:  Solving for p, Initial residual = 0.00616924, Final residual = 0.00030465, No Iterations 90
time step continuity errors : sum local = 4.98658e-10, global = 6.54874e-14, cumulative = -2.81089e-09
DICPCG:  Solving for p, Initial residual = 0.00228873, Final residual = 9.75986e-07, No Iterations 396
time step continuity errors : sum local = 1.59258e-12, global = 4.0076e-16, cumulative = -2.81089e-09
ExecutionTime = 41.61 s  ClockTime = 42 s

Time = 2.1

Courant Number mean: 0.00699931 max: 0.131269
smoothSolver:  Solving for Ux, Initial residual = 0.000455699, Final residual = 5.34705e-06, No Iterations 4
smoothSolver:  Solving for Uy, Initial residual = 0.00187388, Final residual = 4.52395e-06, No Iterations 4
DICPCG:  Solving for p, Initial residual = 0.00609641, Final residual = 0.000300672, No Iterations 90
time step continuity errors : sum local = 4.88055e-10, global = 7.67935e-14, cumulative = -2.81082e-09
DICPCG:  Solving for p, Initial residual = 0.00226406, Final residual = 9.71421e-07, No Iterations 396
time step continuity errors : sum local = 1.57189e-12, global = 8.33603e-16, cumulative = -2.81082e-09
ExecutionTime = 42.49 s  ClockTime = 43 s

Time = 2.15

Courant Number mean: 0.0069983 max: 0.130638
smoothSolver:  Solving for Ux, Initial residual = 0.000444219, Final residual = 5.17684e-06, No Iterations 4
smoothSolver:  Solving for Uy, Initial residual = 0.00184093, Final residual = 9.7807e-06, No Iterations 3
DICPCG:  Solving for p, Initial residual = 0.00611099, Final residual = 0.00030497, No Iterations 93
time step continuity errors : sum local = 4.90934e-10, global = 4.32609e-14, cumulative = -2.81077e-09
DICPCG:  Solving for p, Initial residual = 0.00248088, Final residual = 9.80658e-07, No Iterations 400
time step continuity errors : sum local = 1.57386e-12, global = -2.55902e-15, cumulative = -2.81077e-09
ExecutionTime = 43.4 s  ClockTime = 44 s

Time = 2.2

Courant Number mean: 0.00699731 max: 0.130017
smoothSolver:  Solving for Ux, Initial residual = 0.000432967, Final residual = 5.0161e-06, No Iterations 4
smoothSolver:  Solving for Uy, Initial residual = 0.00180794, Final residual = 9.56266e-06, No Iterations 3
DICPCG:  Solving for p, Initial residual = 0.00598968, Final residual = 0.00029862, No Iterations 90
time step continuity errors : sum local = 4.76738e-10, global = 5.59479e-14, cumulative = -2.81072e-09
DICPCG:  Solving for p, Initial residual = 0.00241636, Final residual = 9.27279e-07, No Iterations 400
time step continuity errors : sum local = 1.47587e-12, global = -2.52123e-15, cumulative = -2.81072e-09
ExecutionTime = 44.3 s  ClockTime = 45 s

Time = 2.25

Courant Number mean: 0.00699633 max: 0.129403
smoothSolver:  Solving for Ux, Initial residual = 0.00042249, Final residual = 4.86276e-06, No Iterations 4
smoothSolver:  Solving for Uy, Initial residual = 0.0017772, Final residual = 9.29656e-06, No Iterations 3
DICPCG:  Solving for p, Initial residual = 0.00588688, Final residual = 0.000291379, No Iterations 93
time step continuity errors : sum local = 4.61428e-10, global = 8.92492e-14, cumulative = -2.81063e-09
DICPCG:  Solving for p, Initial residual = 0.00238308, Final residual = 9.26105e-07, No Iterations 400
time step continuity errors : sum local = 1.46222e-12, global = -1.22933e-15, cumulative = -2.81063e-09
ExecutionTime = 45.2 s  ClockTime = 46 s

Time = 2.3

Courant Number mean: 0.00699537 max: 0.129033
smoothSolver:  Solving for Ux, Initial residual = 0.000412453, Final residual = 9.89604e-06, No Iterations 3
smoothSolver:  Solving for Uy, Initial residual = 0.00174738, Final residual = 9.04448e-06, No Iterations 3
DICPCG:  Solving for p, Initial residual = 0.00652948, Final residual = 0.000320479, No Iterations 106
time step continuity errors : sum local = 5.03443e-10, global = -2.80704e-13, cumulative = -2.81091e-09
DICPCG:  Solving for p, Initial residual = 0.00379022, Final residual = 9.41612e-07, No Iterations 402
time step continuity errors : sum local = 1.47487e-12, global = -6.73911e-15, cumulative = -2.81092e-09
ExecutionTime = 46.13 s  ClockTime = 46 s

Time = 2.35

Courant Number mean: 0.00699444 max: 0.128768
smoothSolver:  Solving for Ux, Initial residual = 0.000398892, Final residual = 9.69345e-06, No Iterations 3
smoothSolver:  Solving for Uy, Initial residual = 0.00169369, Final residual = 8.82118e-06, No Iterations 3
DICPCG:  Solving for p, Initial residual = 0.00629745, Final residual = 0.000313352, No Iterations 95
time step continuity errors : sum local = 4.87431e-10, global = -5.20978e-13, cumulative = -2.81144e-09
DICPCG:  Solving for p, Initial residual = 0.00345959, Final residual = 9.10394e-07, No Iterations 401
time step continuity errors : sum local = 1.41254e-12, global = -3.97428e-15, cumulative = -2.81145e-09
ExecutionTime = 47.03 s  ClockTime = 47 s

Time = 2.4

Courant Number mean: 0.00699352 max: 0.128498
smoothSolver:  Solving for Ux, Initial residual = 0.000390525, Final residual = 9.43243e-06, No Iterations 3
smoothSolver:  Solving for Uy, Initial residual = 0.0016696, Final residual = 8.59599e-06, No Iterations 3
DICPCG:  Solving for p, Initial residual = 0.00624863, Final residual = 0.000300077, No Iterations 98
time step continuity errors : sum local = 4.63451e-10, global = -2.02271e-13, cumulative = -2.81165e-09
DICPCG:  Solving for p, Initial residual = 0.00346121, Final residual = 9.44075e-07, No Iterations 401
time step continuity errors : sum local = 1.45407e-12, global = -2.30075e-15, cumulative = -2.81165e-09
ExecutionTime = 47.93 s  ClockTime = 48 s

Time = 2.45

Courant Number mean: 0.00699262 max: 0.128226
smoothSolver:  Solving for Ux, Initial residual = 0.000381862, Final residual = 9.18718e-06, No Iterations 3
smoothSolver:  Solving for Uy, Initial residual = 0.00164294, Final residual = 8.3787e-06, No Iterations 3
DICPCG:  Solving for p, Initial residual = 0.00615031, Final residual = 0.000292261, No Iterations 98
time step continuity errors : sum local = 4.47927e-10, global = -3.1304e-13, cumulative = -2.81196e-09
DICPCG:  Solving for p, Initial residual = 0.00341984, Final residual = 9.37629e-07, No Iterations 401
time step continuity errors : sum local = 1.43341e-12, global = -2.50476e-15, cumulative = -2.81197e-09
ExecutionTime = 48.86 s  ClockTime = 49 s

Time = 2.5

Courant Number mean: 0.00699172 max: 0.12795
smoothSolver:  Solving for Ux, Initial residual = 0.000373588, Final residual = 8.9499e-06, No Iterations 3
smoothSolver:  Solving for Uy, Initial residual = 0.0016174, Final residual = 8.1699e-06, No Iterations 3
DICPCG:  Solving for p, Initial residual = 0.00611446, Final residual = 0.000304851, No Iterations 97
time step continuity errors : sum local = 4.63813e-10, global = -2.70364e-13, cumulative = -2.81224e-09
DICPCG:  Solving for p, Initial residual = 0.00340094, Final residual = 9.21346e-07, No Iterations 401
time step continuity errors : sum local = 1.39821e-12, global = -2.42898e-15, cumulative = -2.81224e-09
ExecutionTime = 49.76 s  ClockTime = 50 s

Time = 2.55

Courant Number mean: 0.00699084 max: 0.127672
smoothSolver:  Solving for Ux, Initial residual = 0.000365571, Final residual = 8.72161e-06, No Iterations 3
smoothSolver:  Solving for Uy, Initial residual = 0.00159237, Final residual = 7.97255e-06, No Iterations 3
DICPCG:  Solving for p, Initial residual = 0.006024, Final residual = 0.000288706, No Iterations 98
time step continuity errors : sum local = 4.36024e-10, global = -2.80679e-13, cumulative = -2.81252e-09
DICPCG:  Solving for p, Initial residual = 0.00335563, Final residual = 9.61318e-07, No Iterations 400
time step continuity errors : sum local = 1.44816e-12, global = -2.7617e-15, cumulative = -2.81252e-09
ExecutionTime = 50.67 s  ClockTime = 51 s

Time = 2.6

Courant Number mean: 0.00698997 max: 0.127392
smoothSolver:  Solving for Ux, Initial residual = 0.000357853, Final residual = 8.5022e-06, No Iterations 3
smoothSolver:  Solving for Uy, Initial residual = 0.00156801, Final residual = 7.77955e-06, No Iterations 3
DICPCG:  Solving for p, Initial residual = 0.00592546, Final residual = 0.000284046, No Iterations 98
time step continuity errors : sum local = 4.25873e-10, global = -2.90426e-13, cumulative = -2.81281e-09
DICPCG:  Solving for p, Initial residual = 0.00331953, Final residual = 9.73539e-07, No Iterations 400
time step continuity errors : sum local = 1.45599e-12, global = -2.81986e-15, cumulative = -2.81282e-09
ExecutionTime = 51.58 s  ClockTime = 52 s

Time = 2.65

Courant Number mean: 0.00698911 max: 0.127111
smoothSolver:  Solving for Ux, Initial residual = 0.00035039, Final residual = 8.29094e-06, No Iterations 3
smoothSolver:  Solving for Uy, Initial residual = 0.00154423, Final residual = 7.59596e-06, No Iterations 3
DICPCG:  Solving for p, Initial residual = 0.00585289, Final residual = 0.000280315, No Iterations 98
time step continuity errors : sum local = 4.1729e-10, global = -2.88072e-13, cumulative = -2.8131e-09
DICPCG:  Solving for p, Initial residual = 0.00328324, Final residual = 9.58541e-07, No Iterations 400
time step continuity errors : sum local = 1.42349e-12, global = -2.57552e-15, cumulative = -2.81311e-09
ExecutionTime = 52.49 s  ClockTime = 53 s

Time = 2.7

Courant Number mean: 0.00698827 max: 0.126827
smoothSolver:  Solving for Ux, Initial residual = 0.000343186, Final residual = 8.08769e-06, No Iterations 3
smoothSolver:  Solving for Uy, Initial residual = 0.00152102, Final residual = 7.42019e-06, No Iterations 3
DICPCG:  Solving for p, Initial residual = 0.00580246, Final residual = 0.000277947, No Iterations 98
time step continuity errors : sum local = 4.10865e-10, global = -2.84811e-13, cumulative = -2.81339e-09
DICPCG:  Solving for p, Initial residual = 0.00325624, Final residual = 9.56072e-07, No Iterations 400
time step continuity errors : sum local = 1.40984e-12, global = -2.77261e-15, cumulative = -2.81339e-09
ExecutionTime = 53.39 s  ClockTime = 54 s

Time = 2.75

Courant Number mean: 0.00698743 max: 0.126542
smoothSolver:  Solving for Ux, Initial residual = 0.000336224, Final residual = 7.89199e-06, No Iterations 3
smoothSolver:  Solving for Uy, Initial residual = 0.0014984, Final residual = 7.24932e-06, No Iterations 3
DICPCG:  Solving for p, Initial residual = 0.00573612, Final residual = 0.000275963, No Iterations 98
time step continuity errors : sum local = 4.05093e-10, global = -2.75453e-13, cumulative = -2.81367e-09
DICPCG:  Solving for p, Initial residual = 0.00321982, Final residual = 9.46693e-07, No Iterations 400
time step continuity errors : sum local = 1.38638e-12, global = -2.74043e-15, cumulative = -2.81367e-09
ExecutionTime = 54.29 s  ClockTime = 55 s

Time = 2.8

Courant Number mean: 0.0069866 max: 0.126257
smoothSolver:  Solving for Ux, Initial residual = 0.000329485, Final residual = 7.70347e-06, No Iterations 3
smoothSolver:  Solving for Uy, Initial residual = 0.00147648, Final residual = 7.08692e-06, No Iterations 3
DICPCG:  Solving for p, Initial residual = 0.00567932, Final residual = 0.000273697, No Iterations 98
time step continuity errors : sum local = 3.99027e-10, global = -2.82528e-13, cumulative = -2.81395e-09
DICPCG:  Solving for p, Initial residual = 0.00319053, Final residual = 9.94145e-07, No Iterations 399
time step continuity errors : sum local = 1.44601e-12, global = -3.5446e-15, cumulative = -2.81396e-09
ExecutionTime = 55.19 s  ClockTime = 56 s

Time = 2.85

Courant Number mean: 0.00698579 max: 0.12597
smoothSolver:  Solving for Ux, Initial residual = 0.000322975, Final residual = 7.52186e-06, No Iterations 3
smoothSolver:  Solving for Uy, Initial residual = 0.001455, Final residual = 6.93011e-06, No Iterations 3
DICPCG:  Solving for p, Initial residual = 0.00561627, Final residual = 0.000271063, No Iterations 98
time step continuity errors : sum local = 3.9252e-10, global = -2.85708e-13, cumulative = -2.81424e-09
DICPCG:  Solving for p, Initial residual = 0.00316177, Final residual = 9.92171e-07, No Iterations 399
time step continuity errors : sum local = 1.43341e-12, global = -3.69875e-15, cumulative = -2.81425e-09
ExecutionTime = 56.1 s  ClockTime = 56 s

Time = 2.9

Courant Number mean: 0.00698498 max: 0.125683
smoothSolver:  Solving for Ux, Initial residual = 0.000316678, Final residual = 7.34668e-06, No Iterations 3
smoothSolver:  Solving for Uy, Initial residual = 0.00143405, Final residual = 6.77908e-06, No Iterations 3
DICPCG:  Solving for p, Initial residual = 0.00558556, Final residual = 0.000270678, No Iterations 98
time step continuity errors : sum local = 3.8935e-10, global = -2.70715e-13, cumulative = -2.81452e-09
DICPCG:  Solving for p, Initial residual = 0.00313839, Final residual = 9.80355e-07, No Iterations 399
time step continuity errors : sum local = 1.40698e-12, global = -3.60016e-15, cumulative = -2.81452e-09
ExecutionTime = 57.01 s  ClockTime = 57 s

Time = 2.95

Courant Number mean: 0.00698418 max: 0.125395
smoothSolver:  Solving for Ux, Initial residual = 0.000310582, Final residual = 7.1777e-06, No Iterations 3
smoothSolver:  Solving for Uy, Initial residual = 0.00141365, Final residual = 6.63282e-06, No Iterations 3
DICPCG:  Solving for p, Initial residual = 0.00549731, Final residual = 0.000266603, No Iterations 98
time step continuity errors : sum local = 3.80957e-10, global = -2.70754e-13, cumulative = -2.81479e-09
DICPCG:  Solving for p, Initial residual = 0.00310647, Final residual = 9.6742e-07, No Iterations 399
time step continuity errors : sum local = 1.37922e-12, global = -3.47947e-15, cumulative = -2.8148e-09
ExecutionTime = 57.91 s  ClockTime = 58 s

Time = 3

Courant Number mean: 0.00698339 max: 0.125107
smoothSolver:  Solving for Ux, Initial residual = 0.000304674, Final residual = 7.01462e-06, No Iterations 3
smoothSolver:  Solving for Uy, Initial residual = 0.00139376, Final residual = 6.49302e-06, No Iterations 3
DICPCG:  Solving for p, Initial residual = 0.00544459, Final residual = 0.000265951, No Iterations 98
time step continuity errors : sum local = 3.77541e-10, global = -2.62495e-13, cumulative = -2.81506e-09
DICPCG:  Solving for p, Initial residual = 0.00307192, Final residual = 9.35004e-07, No Iterations 399
time step continuity errors : sum local = 1.32439e-12, global = -3.41096e-15, cumulative = -2.81506e-09
ExecutionTime = 59.46 s  ClockTime = 60 s

Time = 3.05

Courant Number mean: 0.00698261 max: 0.124818
smoothSolver:  Solving for Ux, Initial residual = 0.000298957, Final residual = 6.85712e-06, No Iterations 3
smoothSolver:  Solving for Uy, Initial residual = 0.00137437, Final residual = 6.35772e-06, No Iterations 3
DICPCG:  Solving for p, Initial residual = 0.00537543, Final residual = 0.000264395, No Iterations 98
time step continuity errors : sum local = 3.72915e-10, global = -2.62413e-13, cumulative = -2.81532e-09
DICPCG:  Solving for p, Initial residual = 0.00304434, Final residual = 9.4961e-07, No Iterations 399
time step continuity errors : sum local = 1.33643e-12, global = -3.41608e-15, cumulative = -2.81533e-09
ExecutionTime = 60.38 s  ClockTime = 61 s

Time = 3.1

Courant Number mean: 0.00698184 max: 0.12453
smoothSolver:  Solving for Ux, Initial residual = 0.000293407, Final residual = 6.70493e-06, No Iterations 3
smoothSolver:  Solving for Uy, Initial residual = 0.00135555, Final residual = 6.22656e-06, No Iterations 3
DICPCG:  Solving for p, Initial residual = 0.00533795, Final residual = 0.00025993, No Iterations 98
time step continuity errors : sum local = 3.64305e-10, global = -2.57792e-13, cumulative = -2.81559e-09
DICPCG:  Solving for p, Initial residual = 0.00301597, Final residual = 9.33544e-07, No Iterations 399
time step continuity errors : sum local = 1.30564e-12, global = -3.34704e-15, cumulative = -2.81559e-09
ExecutionTime = 61.29 s  ClockTime = 62 s

Time = 3.15

Courant Number mean: 0.00698108 max: 0.124242
smoothSolver:  Solving for Ux, Initial residual = 0.000288032, Final residual = 6.55788e-06, No Iterations 3
smoothSolver:  Solving for Uy, Initial residual = 0.00133707, Final residual = 6.10012e-06, No Iterations 3
DICPCG:  Solving for p, Initial residual = 0.00532128, Final residual = 0.000259024, No Iterations 98
time step continuity errors : sum local = 3.60778e-10, global = -2.56086e-13, cumulative = -2.81584e-09
DICPCG:  Solving for p, Initial residual = 0.00299994, Final residual = 9.9627e-07, No Iterations 398
time step continuity errors : sum local = 1.38469e-12, global = -3.88364e-15, cumulative = -2.81585e-09
ExecutionTime = 62.18 s  ClockTime = 63 s

Time = 3.2

Courant Number mean: 0.00698033 max: 0.123953
smoothSolver:  Solving for Ux, Initial residual = 0.000282816, Final residual = 6.41567e-06, No Iterations 3
smoothSolver:  Solving for Uy, Initial residual = 0.00131899, Final residual = 5.97791e-06, No Iterations 3
DICPCG:  Solving for p, Initial residual = 0.00525674, Final residual = 0.000255936, No Iterations 98
time step continuity errors : sum local = 3.54286e-10, global = -2.52813e-13, cumulative = -2.8161e-09
DICPCG:  Solving for p, Initial residual = 0.00296355, Final residual = 9.78029e-07, No Iterations 398
time step continuity errors : sum local = 1.35108e-12, global = -3.9431e-15, cumulative = -2.81611e-09
ExecutionTime = 63.08 s  ClockTime = 63 s

Time = 3.25

Courant Number mean: 0.00697958 max: 0.123666
smoothSolver:  Solving for Ux, Initial residual = 0.000277756, Final residual = 6.27804e-06, No Iterations 3
smoothSolver:  Solving for Uy, Initial residual = 0.00130141, Final residual = 5.86147e-06, No Iterations 3
DICPCG:  Solving for p, Initial residual = 0.0053026, Final residual = 0.000257855, No Iterations 98
time step continuity errors : sum local = 3.54781e-10, global = -2.49787e-13, cumulative = -2.81636e-09
DICPCG:  Solving for p, Initial residual = 0.00295228, Final residual = 9.75172e-07, No Iterations 398
time step continuity errors : sum local = 1.33896e-12, global = -3.74046e-15, cumulative = -2.81636e-09
ExecutionTime = 63.99 s  ClockTime = 64 s

Time = 3.3

Courant Number mean: 0.00697885 max: 0.123378
smoothSolver:  Solving for Ux, Initial residual = 0.000272848, Final residual = 6.14488e-06, No Iterations 3
smoothSolver:  Solving for Uy, Initial residual = 0.00128423, Final residual = 5.74949e-06, No Iterations 3
DICPCG:  Solving for p, Initial residual = 0.00519722, Final residual = 0.000256586, No Iterations 98
time step continuity errors : sum local = 3.50878e-10, global = -2.46125e-13, cumulative = -2.81661e-09
DICPCG:  Solving for p, Initial residual = 0.00292046, Final residual = 9.79064e-07, No Iterations 398
time step continuity errors : sum local = 1.33602e-12, global = -3.75877e-15, cumulative = -2.81661e-09
ExecutionTime = 64.89 s  ClockTime = 65 s

Time = 3.35

Courant Number mean: 0.00697812 max: 0.123091
smoothSolver:  Solving for Ux, Initial residual = 0.00026808, Final residual = 6.01603e-06, No Iterations 3
smoothSolver:  Solving for Uy, Initial residual = 0.00126743, Final residual = 5.64076e-06, No Iterations 3
DICPCG:  Solving for p, Initial residual = 0.00514359, Final residual = 0.000252286, No Iterations 98
time step continuity errors : sum local = 3.42909e-10, global = -2.44895e-13, cumulative = -2.81685e-09
DICPCG:  Solving for p, Initial residual = 0.0028904, Final residual = 9.43193e-07, No Iterations 398
time step continuity errors : sum local = 1.27938e-12, global = -3.62563e-15, cumulative = -2.81686e-09
ExecutionTime = 65.79 s  ClockTime = 66 s

Time = 3.4

Courant Number mean: 0.0069774 max: 0.122805
smoothSolver:  Solving for Ux, Initial residual = 0.000263449, Final residual = 5.89126e-06, No Iterations 3
smoothSolver:  Solving for Uy, Initial residual = 0.00125099, Final residual = 5.53469e-06, No Iterations 3
DICPCG:  Solving for p, Initial residual = 0.00509107, Final residual = 0.000249504, No Iterations 98
time step continuity errors : sum local = 3.37124e-10, global = -2.38818e-13, cumulative = -2.8171e-09
DICPCG:  Solving for p, Initial residual = 0.00285905, Final residual = 9.41708e-07, No Iterations 398
time step continuity errors : sum local = 1.26988e-12, global = -3.57026e-15, cumulative = -2.8171e-09
ExecutionTime = 66.7 s  ClockTime = 67 s

Time = 3.45

Courant Number mean: 0.00697669 max: 0.12252
smoothSolver:  Solving for Ux, Initial residual = 0.000258951, Final residual = 5.7705e-06, No Iterations 3
smoothSolver:  Solving for Uy, Initial residual = 0.00123487, Final residual = 5.4328e-06, No Iterations 3
DICPCG:  Solving for p, Initial residual = 0.00501074, Final residual = 0.000248189, No Iterations 98
time step continuity errors : sum local = 3.33394e-10, global = -2.39813e-13, cumulative = -2.81734e-09
DICPCG:  Solving for p, Initial residual = 0.00283746, Final residual = 9.83632e-07, No Iterations 397
time step continuity errors : sum local = 1.31871e-12, global = -3.52209e-15, cumulative = -2.81734e-09
ExecutionTime = 67.6 s  ClockTime = 68 s

Time = 3.5

Courant Number mean: 0.00697598 max: 0.122235
smoothSolver:  Solving for Ux, Initial residual = 0.000254581, Final residual = 5.65356e-06, No Iterations 3
smoothSolver:  Solving for Uy, Initial residual = 0.00121912, Final residual = 5.33513e-06, No Iterations 3
DICPCG:  Solving for p, Initial residual = 0.00493593, Final residual = 0.000244553, No Iterations 98
time step continuity errors : sum local = 3.26601e-10, global = -2.34963e-13, cumulative = -2.81758e-09
DICPCG:  Solving for p, Initial residual = 0.00280793, Final residual = 9.86873e-07, No Iterations 397
time step continuity errors : sum local = 1.31536e-12, global = -3.26232e-15, cumulative = -2.81758e-09
ExecutionTime = 68.49 s  ClockTime = 69 s

Time = 3.55

Courant Number mean: 0.00697529 max: 0.121951
smoothSolver:  Solving for Ux, Initial residual = 0.000250333, Final residual = 5.53996e-06, No Iterations 3
smoothSolver:  Solving for Uy, Initial residual = 0.00120382, Final residual = 5.24082e-06, No Iterations 3
DICPCG:  Solving for p, Initial residual = 0.00488507, Final residual = 0.000240995, No Iterations 98
time step continuity errors : sum local = 3.19999e-10, global = -2.31787e-13, cumulative = -2.81781e-09
DICPCG:  Solving for p, Initial residual = 0.0027797, Final residual = 9.77365e-07, No Iterations 397
time step continuity errors : sum local = 1.29525e-12, global = -3.3066e-15, cumulative = -2.81782e-09
ExecutionTime = 69.39 s  ClockTime = 70 s

Time = 3.6

Courant Number mean: 0.0069746 max: 0.121668
smoothSolver:  Solving for Ux, Initial residual = 0.000246199, Final residual = 5.42983e-06, No Iterations 3
smoothSolver:  Solving for Uy, Initial residual = 0.00118885, Final residual = 5.15037e-06, No Iterations 3
DICPCG:  Solving for p, Initial residual = 0.00481158, Final residual = 0.000237295, No Iterations 98
time step continuity errors : sum local = 3.13304e-10, global = -2.3005e-13, cumulative = -2.81805e-09
DICPCG:  Solving for p, Initial residual = 0.00275094, Final residual = 9.58835e-07, No Iterations 397
time step continuity errors : sum local = 1.26355e-12, global = -3.21776e-15, cumulative = -2.81805e-09
ExecutionTime = 70.29 s  ClockTime = 71 s

Time = 3.65

Courant Number mean: 0.00697392 max: 0.121386
smoothSolver:  Solving for Ux, Initial residual = 0.00024218, Final residual = 5.32307e-06, No Iterations 3
smoothSolver:  Solving for Uy, Initial residual = 0.00117418, Final residual = 5.06245e-06, No Iterations 3
DICPCG:  Solving for p, Initial residual = 0.00478528, Final residual = 0.00023695, No Iterations 98
time step continuity errors : sum local = 3.11117e-10, global = -2.27537e-13, cumulative = -2.81828e-09
DICPCG:  Solving for p, Initial residual = 0.00273123, Final residual = 9.543e-07, No Iterations 397
time step continuity errors : sum local = 1.2507e-12, global = -3.17573e-15, cumulative = -2.81828e-09
ExecutionTime = 71.18 s  ClockTime = 72 s

Time = 3.7

Courant Number mean: 0.00697324 max: 0.121105
smoothSolver:  Solving for Ux, Initial residual = 0.00023827, Final residual = 5.21947e-06, No Iterations 3
smoothSolver:  Solving for Uy, Initial residual = 0.00115981, Final residual = 4.97736e-06, No Iterations 3
DICPCG:  Solving for p, Initial residual = 0.00475556, Final residual = 0.000235179, No Iterations 98
time step continuity errors : sum local = 3.07099e-10, global = -2.24099e-13, cumulative = -2.8185e-09
DICPCG:  Solving for p, Initial residual = 0.00271129, Final residual = 9.35555e-07, No Iterations 397
time step continuity errors : sum local = 1.21937e-12, global = -3.05404e-15, cumulative = -2.81851e-09
ExecutionTime = 72.08 s  ClockTime = 72 s

Time = 3.75

Courant Number mean: 0.00697257 max: 0.120825
smoothSolver:  Solving for Ux, Initial residual = 0.000234462, Final residual = 5.11878e-06, No Iterations 3
smoothSolver:  Solving for Uy, Initial residual = 0.00114577, Final residual = 4.89522e-06, No Iterations 3
DICPCG:  Solving for p, Initial residual = 0.00468422, Final residual = 0.000232027, No Iterations 98
time step continuity errors : sum local = 3.01326e-10, global = -2.22165e-13, cumulative = -2.81873e-09
DICPCG:  Solving for p, Initial residual = 0.00268218, Final residual = 9.36578e-07, No Iterations 397
time step continuity errors : sum local = 1.21407e-12, global = -3.06769e-15, cumulative = -2.81873e-09
ExecutionTime = 73 s  ClockTime = 73 s

Time = 3.8

Courant Number mean: 0.00697191 max: 0.120546
smoothSolver:  Solving for Ux, Initial residual = 0.000230755, Final residual = 5.02108e-06, No Iterations 3
smoothSolver:  Solving for Uy, Initial residual = 0.00113197, Final residual = 4.81582e-06, No Iterations 3
DICPCG:  Solving for p, Initial residual = 0.0046388, Final residual = 0.000230222, No Iterations 98
time step continuity errors : sum local = 2.97374e-10, global = -2.18419e-13, cumulative = -2.81895e-09
DICPCG:  Solving for p, Initial residual = 0.00265773, Final residual = 9.44213e-07, No Iterations 397
time step continuity errors : sum local = 1.21744e-12, global = -2.95035e-15, cumulative = -2.81895e-09
ExecutionTime = 73.9 s  ClockTime = 74 s

Time = 3.85

Courant Number mean: 0.00697126 max: 0.120268
smoothSolver:  Solving for Ux, Initial residual = 0.000227145, Final residual = 4.92611e-06, No Iterations 3
smoothSolver:  Solving for Uy, Initial residual = 0.00111848, Final residual = 4.73885e-06, No Iterations 3
DICPCG:  Solving for p, Initial residual = 0.00460242, Final residual = 0.000228157, No Iterations 98
time step continuity errors : sum local = 2.93141e-10, global = -2.17803e-13, cumulative = -2.81917e-09
DICPCG:  Solving for p, Initial residual = 0.00263455, Final residual = 9.31671e-07, No Iterations 397
time step continuity errors : sum local = 1.19488e-12, global = -2.95946e-15, cumulative = -2.81918e-09
ExecutionTime = 74.8 s  ClockTime = 75 s

Time = 3.9

Courant Number mean: 0.00697061 max: 0.119991
smoothSolver:  Solving for Ux, Initial residual = 0.000223629, Final residual = 4.83376e-06, No Iterations 3
smoothSolver:  Solving for Uy, Initial residual = 0.0011053, Final residual = 4.66462e-06, No Iterations 3
DICPCG:  Solving for p, Initial residual = 0.00455198, Final residual = 0.000225902, No Iterations 98
time step continuity errors : sum local = 2.88711e-10, global = -2.14623e-13, cumulative = -2.81939e-09
DICPCG:  Solving for p, Initial residual = 0.00261323, Final residual = 9.24606e-07, No Iterations 397
time step continuity errors : sum local = 1.17958e-12, global = -2.91878e-15, cumulative = -2.81939e-09
ExecutionTime = 75.71 s  ClockTime = 76 s

Time = 3.95

Courant Number mean: 0.00696997 max: 0.119716
smoothSolver:  Solving for Ux, Initial residual = 0.000220204, Final residual = 4.74406e-06, No Iterations 3
smoothSolver:  Solving for Uy, Initial residual = 0.00109238, Final residual = 4.59292e-06, No Iterations 3
DICPCG:  Solving for p, Initial residual = 0.00450914, Final residual = 0.000223961, No Iterations 98
time step continuity errors : sum local = 2.84741e-10, global = -2.12135e-13, cumulative = -2.8196e-09
DICPCG:  Solving for p, Initial residual = 0.00258952, Final residual = 9.93714e-07, No Iterations 396
time step continuity errors : sum local = 1.26119e-12, global = -2.08521e-15, cumulative = -2.81961e-09
ExecutionTime = 76.6 s  ClockTime = 77 s

Time = 4

Courant Number mean: 0.00696933 max: 0.119441
smoothSolver:  Solving for Ux, Initial residual = 0.000216866, Final residual = 4.65683e-06, No Iterations 3
smoothSolver:  Solving for Uy, Initial residual = 0.00107973, Final residual = 4.52324e-06, No Iterations 3
DICPCG:  Solving for p, Initial residual = 0.00450343, Final residual = 0.000223721, No Iterations 98
time step continuity errors : sum local = 2.82977e-10, global = -2.09183e-13, cumulative = -2.81982e-09
DICPCG:  Solving for p, Initial residual = 0.00257313, Final residual = 9.89707e-07, No Iterations 396
time step continuity errors : sum local = 1.24971e-12, global = -2.05767e-15, cumulative = -2.81982e-09
ExecutionTime = 78.15 s  ClockTime = 79 s

Time = 4.05

Courant Number mean: 0.0069687 max: 0.119168
smoothSolver:  Solving for Ux, Initial residual = 0.000213611, Final residual = 4.57196e-06, No Iterations 3
smoothSolver:  Solving for Uy, Initial residual = 0.00106734, Final residual = 4.45601e-06, No Iterations 3
DICPCG:  Solving for p, Initial residual = 0.00445281, Final residual = 0.000221258, No Iterations 98
time step continuity errors : sum local = 2.78447e-10, global = -2.05856e-13, cumulative = -2.82002e-09
DICPCG:  Solving for p, Initial residual = 0.00255283, Final residual = 9.83279e-07, No Iterations 396
time step continuity errors : sum local = 1.23531e-12, global = -1.93834e-15, cumulative = -2.82003e-09
ExecutionTime = 79.05 s  ClockTime = 79 s

Time = 4.1

Courant Number mean: 0.00696808 max: 0.118897
smoothSolver:  Solving for Ux, Initial residual = 0.00021044, Final residual = 4.48941e-06, No Iterations 3
smoothSolver:  Solving for Uy, Initial residual = 0.00105519, Final residual = 4.39003e-06, No Iterations 3
DICPCG:  Solving for p, Initial residual = 0.00442187, Final residual = 0.000220109, No Iterations 98
time step continuity errors : sum local = 2.75599e-10, global = -2.05943e-13, cumulative = -2.82023e-09
DICPCG:  Solving for p, Initial residual = 0.0025323, Final residual = 9.68035e-07, No Iterations 396
time step continuity errors : sum local = 1.21e-12, global = -1.8976e-15, cumulative = -2.82023e-09
ExecutionTime = 79.96 s  ClockTime = 80 s

Time = 4.15

Courant Number mean: 0.00696746 max: 0.118626
smoothSolver:  Solving for Ux, Initial residual = 0.000207349, Final residual = 4.40906e-06, No Iterations 3
smoothSolver:  Solving for Uy, Initial residual = 0.00104328, Final residual = 4.326e-06, No Iterations 3
DICPCG:  Solving for p, Initial residual = 0.00438777, Final residual = 0.000218689, No Iterations 98
time step continuity errors : sum local = 2.72449e-10, global = -2.059e-13, cumulative = -2.82044e-09
DICPCG:  Solving for p, Initial residual = 0.00251035, Final residual = 9.66176e-07, No Iterations 396
time step continuity errors : sum local = 1.20167e-12, global = -2.02198e-15, cumulative = -2.82044e-09
ExecutionTime = 80.85 s  ClockTime = 81 s

Time = 4.2

Courant Number mean: 0.00696684 max: 0.118357
smoothSolver:  Solving for Ux, Initial residual = 0.000204331, Final residual = 9.9283e-06, No Iterations 2
smoothSolver:  Solving for Uy, Initial residual = 0.00103156, Final residual = 4.2643e-06, No Iterations 3
DICPCG:  Solving for p, Initial residual = 0.00611827, Final residual = 0.000304609, No Iterations 112
time step continuity errors : sum local = 3.77586e-10, global = -4.00709e-13, cumulative = -2.82084e-09
DICPCG:  Solving for p, Initial residual = 0.00505393, Final residual = 9.76534e-07, No Iterations 402
time step continuity errors : sum local = 1.20833e-12, global = -3.47154e-15, cumulative = -2.82085e-09
ExecutionTime = 81.78 s  ClockTime = 82 s

Time = 4.25

Courant Number mean: 0.00696626 max: 0.118097
smoothSolver:  Solving for Ux, Initial residual = 0.000197677, Final residual = 9.89563e-06, No Iterations 2
smoothSolver:  Solving for Uy, Initial residual = 0.000993302, Final residual = 4.24815e-06, No Iterations 3
DICPCG:  Solving for p, Initial residual = 0.00597211, Final residual = 0.000294091, No Iterations 100
time step continuity errors : sum local = 3.61608e-10, global = -7.96297e-13, cumulative = -2.82164e-09
DICPCG:  Solving for p, Initial residual = 0.00467397, Final residual = 9.82562e-07, No Iterations 304
time step continuity errors : sum local = 1.20664e-12, global = -2.20284e-13, cumulative = -2.82186e-09
ExecutionTime = 82.53 s  ClockTime = 83 s

Time = 4.3

Courant Number mean: 0.00696568 max: 0.117838
smoothSolver:  Solving for Ux, Initial residual = 0.000195463, Final residual = 9.73811e-06, No Iterations 2
smoothSolver:  Solving for Uy, Initial residual = 0.000985633, Final residual = 4.18319e-06, No Iterations 3
DICPCG:  Solving for p, Initial residual = 0.00592493, Final residual = 0.000293829, No Iterations 102
time step continuity errors : sum local = 3.59801e-10, global = -8.45241e-13, cumulative = -2.82271e-09
DICPCG:  Solving for p, Initial residual = 0.00468826, Final residual = 8.82123e-07, No Iterations 401
time step continuity errors : sum local = 1.07861e-12, global = -4.71221e-16, cumulative = -2.82271e-09
ExecutionTime = 83.44 s  ClockTime = 84 s

Time = 4.35

Courant Number mean: 0.00696511 max: 0.117579
smoothSolver:  Solving for Ux, Initial residual = 0.000192825, Final residual = 9.59469e-06, No Iterations 2
smoothSolver:  Solving for Uy, Initial residual = 0.000975154, Final residual = 4.12069e-06, No Iterations 3
DICPCG:  Solving for p, Initial residual = 0.00588465, Final residual = 0.00029366, No Iterations 102
time step continuity errors : sum local = 3.57931e-10, global = -3.17203e-13, cumulative = -2.82303e-09
DICPCG:  Solving for p, Initial residual = 0.00465557, Final residual = 9.96863e-07, No Iterations 400
time step continuity errors : sum local = 1.21343e-12, global = -2.85393e-16, cumulative = -2.82303e-09
ExecutionTime = 84.34 s  ClockTime = 85 s

Time = 4.4

Courant Number mean: 0.00696454 max: 0.117322
smoothSolver:  Solving for Ux, Initial residual = 0.000190284, Final residual = 9.4505e-06, No Iterations 2
smoothSolver:  Solving for Uy, Initial residual = 0.000965256, Final residual = 4.06528e-06, No Iterations 3
DICPCG:  Solving for p, Initial residual = 0.00586175, Final residual = 0.000291835, No Iterations 102
time step continuity errors : sum local = 3.54057e-10, global = -5.07881e-13, cumulative = -2.82353e-09
DICPCG:  Solving for p, Initial residual = 0.00462645, Final residual = 9.57781e-07, No Iterations 400
time step continuity errors : sum local = 1.1604e-12, global = -1.98256e-16, cumulative = -2.82353e-09
ExecutionTime = 85.25 s  ClockTime = 86 s

Time = 4.45

Courant Number mean: 0.00696397 max: 0.117066
smoothSolver:  Solving for Ux, Initial residual = 0.000187788, Final residual = 9.3087e-06, No Iterations 2
smoothSolver:  Solving for Uy, Initial residual = 0.000955496, Final residual = 4.01177e-06, No Iterations 3
DICPCG:  Solving for p, Initial residual = 0.00581933, Final residual = 0.000289274, No Iterations 103
time step continuity errors : sum local = 3.49339e-10, global = -5.32427e-13, cumulative = -2.82407e-09
DICPCG:  Solving for p, Initial residual = 0.00459742, Final residual = 9.82632e-07, No Iterations 400
time step continuity errors : sum local = 1.18503e-12, global = -1.49758e-16, cumulative = -2.82407e-09
ExecutionTime = 86.17 s  ClockTime = 87 s

Time = 4.5

Courant Number mean: 0.00696341 max: 0.116812
smoothSolver:  Solving for Ux, Initial residual = 0.000185346, Final residual = 9.16935e-06, No Iterations 2
smoothSolver:  Solving for Uy, Initial residual = 0.0009459, Final residual = 3.95861e-06, No Iterations 3
DICPCG:  Solving for p, Initial residual = 0.00573362, Final residual = 0.000286004, No Iterations 103
time step continuity errors : sum local = 3.43836e-10, global = -5.28573e-13, cumulative = -2.82459e-09
DICPCG:  Solving for p, Initial residual = 0.00456094, Final residual = 9.75473e-07, No Iterations 400
time step continuity errors : sum local = 1.1712e-12, global = -2.54034e-16, cumulative = -2.8246e-09
ExecutionTime = 87.07 s  ClockTime = 87 s

Time = 4.55

Courant Number mean: 0.00696285 max: 0.116559
smoothSolver:  Solving for Ux, Initial residual = 0.00018295, Final residual = 9.03253e-06, No Iterations 2
smoothSolver:  Solving for Uy, Initial residual = 0.00093642, Final residual = 3.90828e-06, No Iterations 3
DICPCG:  Solving for p, Initial residual = 0.00573346, Final residual = 0.000285395, No Iterations 103
time step continuity errors : sum local = 3.41589e-10, global = -5.15535e-13, cumulative = -2.82511e-09
DICPCG:  Solving for p, Initial residual = 0.0045338, Final residual = 9.67802e-07, No Iterations 400
time step continuity errors : sum local = 1.15685e-12, global = -2.30864e-16, cumulative = -2.82511e-09
ExecutionTime = 87.98 s  ClockTime = 88 s

Time = 4.6

Courant Number mean: 0.0069623 max: 0.116307
smoothSolver:  Solving for Ux, Initial residual = 0.000180606, Final residual = 8.89825e-06, No Iterations 2
smoothSolver:  Solving for Uy, Initial residual = 0.000927106, Final residual = 3.85954e-06, No Iterations 3
DICPCG:  Solving for p, Initial residual = 0.0056827, Final residual = 0.000283525, No Iterations 103
time step continuity errors : sum local = 3.37862e-10, global = -5.1356e-13, cumulative = -2.82562e-09
DICPCG:  Solving for p, Initial residual = 0.00450468, Final residual = 9.60082e-07, No Iterations 400
time step continuity errors : sum local = 1.14261e-12, global = -2.20349e-16, cumulative = -2.82562e-09
ExecutionTime = 88.89 s  ClockTime = 89 s

Time = 4.65

Courant Number mean: 0.00696175 max: 0.116056
smoothSolver:  Solving for Ux, Initial residual = 0.000178309, Final residual = 8.76655e-06, No Iterations 2
smoothSolver:  Solving for Uy, Initial residual = 0.000917936, Final residual = 3.81295e-06, No Iterations 3
DICPCG:  Solving for p, Initial residual = 0.00563391, Final residual = 0.000281172, No Iterations 103
time step continuity errors : sum local = 3.33586e-10, global = -5.11768e-13, cumulative = -2.82614e-09
DICPCG:  Solving for p, Initial residual = 0.00447593, Final residual = 9.52365e-07, No Iterations 400
time step continuity errors : sum local = 1.12839e-12, global = -1.56917e-16, cumulative = -2.82614e-09
ExecutionTime = 89.79 s  ClockTime = 90 s

Time = 4.7

Courant Number mean: 0.00696121 max: 0.115807
smoothSolver:  Solving for Ux, Initial residual = 0.000176058, Final residual = 8.63737e-06, No Iterations 2
smoothSolver:  Solving for Uy, Initial residual = 0.000908932, Final residual = 3.76721e-06, No Iterations 3
DICPCG:  Solving for p, Initial residual = 0.0055794, Final residual = 0.000278153, No Iterations 103
time step continuity errors : sum local = 3.28565e-10, global = -5.05925e-13, cumulative = -2.82664e-09
DICPCG:  Solving for p, Initial residual = 0.00444313, Final residual = 9.19e-07, No Iterations 400
time step continuity errors : sum local = 1.08418e-12, global = -1.51984e-16, cumulative = -2.82664e-09
ExecutionTime = 90.71 s  ClockTime = 91 s

Time = 4.75

Courant Number mean: 0.00696067 max: 0.11556
smoothSolver:  Solving for Ux, Initial residual = 0.000173853, Final residual = 8.51065e-06, No Iterations 2
smoothSolver:  Solving for Uy, Initial residual = 0.000900065, Final residual = 9.93491e-06, No Iterations 2
DICPCG:  Solving for p, Initial residual = 0.00554596, Final residual = 0.000259538, No Iterations 106
time step continuity errors : sum local = 3.05281e-10, global = -5.96822e-13, cumulative = -2.82724e-09
DICPCG:  Solving for p, Initial residual = 0.00447552, Final residual = 9.35068e-07, No Iterations 400
time step continuity errors : sum local = 1.09863e-12, global = -4.14843e-15, cumulative = -2.82724e-09
ExecutionTime = 91.61 s  ClockTime = 92 s

Time = 4.8

Courant Number mean: 0.00696014 max: 0.115315
smoothSolver:  Solving for Ux, Initial residual = 0.000171494, Final residual = 8.3871e-06, No Iterations 2
smoothSolver:  Solving for Uy, Initial residual = 0.000890581, Final residual = 9.92287e-06, No Iterations 2
DICPCG:  Solving for p, Initial residual = 0.00553263, Final residual = 0.000270352, No Iterations 104
time step continuity errors : sum local = 3.16643e-10, global = -5.43651e-13, cumulative = -2.82779e-09
DICPCG:  Solving for p, Initial residual = 0.00442888, Final residual = 9.10446e-07, No Iterations 400
time step continuity errors : sum local = 1.06509e-12, global = -4.11093e-15, cumulative = -2.82779e-09
ExecutionTime = 92.51 s  ClockTime = 93 s

Time = 4.85

Courant Number mean: 0.00695961 max: 0.115072
smoothSolver:  Solving for Ux, Initial residual = 0.000169406, Final residual = 8.26527e-06, No Iterations 2
smoothSolver:  Solving for Uy, Initial residual = 0.000882031, Final residual = 9.79953e-06, No Iterations 2
DICPCG:  Solving for p, Initial residual = 0.00549582, Final residual = 0.000270252, No Iterations 104
time step continuity errors : sum local = 3.15229e-10, global = -5.15819e-13, cumulative = -2.82831e-09
DICPCG:  Solving for p, Initial residual = 0.00440525, Final residual = 9.81864e-07, No Iterations 399
time step continuity errors : sum local = 1.14397e-12, global = -5.0457e-15, cumulative = -2.82831e-09
ExecutionTime = 93.42 s  ClockTime = 94 s

Time = 4.9

Courant Number mean: 0.00695909 max: 0.11483
smoothSolver:  Solving for Ux, Initial residual = 0.000167334, Final residual = 8.1459e-06, No Iterations 2
smoothSolver:  Solving for Uy, Initial residual = 0.000873635, Final residual = 9.69878e-06, No Iterations 2
DICPCG:  Solving for p, Initial residual = 0.00544286, Final residual = 0.000267563, No Iterations 104
time step continuity errors : sum local = 3.10814e-10, global = -5.13858e-13, cumulative = -2.82883e-09
DICPCG:  Solving for p, Initial residual = 0.00437178, Final residual = 9.64894e-07, No Iterations 399
time step continuity errors : sum local = 1.11957e-12, global = -5.16193e-15, cumulative = -2.82883e-09
ExecutionTime = 94.32 s  ClockTime = 95 s

Time = 4.95

Courant Number mean: 0.00695857 max: 0.11459
smoothSolver:  Solving for Ux, Initial residual = 0.000165308, Final residual = 8.02903e-06, No Iterations 2
smoothSolver:  Solving for Uy, Initial residual = 0.000865401, Final residual = 9.5963e-06, No Iterations 2
DICPCG:  Solving for p, Initial residual = 0.0054167, Final residual = 0.000267258, No Iterations 104
time step continuity errors : sum local = 3.09181e-10, global = -5.07735e-13, cumulative = -2.82934e-09
DICPCG:  Solving for p, Initial residual = 0.00434692, Final residual = 9.71966e-07, No Iterations 399
time step continuity errors : sum local = 1.12311e-12, global = -5.17178e-15, cumulative = -2.82934e-09
ExecutionTime = 95.23 s  ClockTime = 96 s

Time = 5

Courant Number mean: 0.00695805 max: 0.11435
smoothSolver:  Solving for Ux, Initial residual = 0.000163324, Final residual = 7.91447e-06, No Iterations 2
smoothSolver:  Solving for Uy, Initial residual = 0.000857313, Final residual = 9.49524e-06, No Iterations 2
DICPCG:  Solving for p, Initial residual = 0.00535841, Final residual = 0.000263731, No Iterations 104
time step continuity errors : sum local = 3.03851e-10, global = -5.07505e-13, cumulative = -2.82985e-09
DICPCG:  Solving for p, Initial residual = 0.00431864, Final residual = 9.47837e-07, No Iterations 399
time step continuity errors : sum local = 1.09077e-12, global = -4.9647e-15, cumulative = -2.82986e-09
ExecutionTime = 96.79 s  ClockTime = 97 s

Time = 5.05

Courant Number mean: 0.00695754 max: 0.114113
smoothSolver:  Solving for Ux, Initial residual = 0.000161378, Final residual = 7.80237e-06, No Iterations 2
smoothSolver:  Solving for Uy, Initial residual = 0.000849315, Final residual = 9.39646e-06, No Iterations 2
DICPCG:  Solving for p, Initial residual = 0.00529016, Final residual = 0.000260905, No Iterations 104
time step continuity errors : sum local = 2.99387e-10, global = -5.01966e-13, cumulative = -2.83036e-09
DICPCG:  Solving for p, Initial residual = 0.00428472, Final residual = 9.44026e-07, No Iterations 399
time step continuity errors : sum local = 1.08206e-12, global = -4.84057e-15, cumulative = -2.83036e-09
ExecutionTime = 97.7 s  ClockTime = 98 s

Time = 5.1

Courant Number mean: 0.00695703 max: 0.113876
smoothSolver:  Solving for Ux, Initial residual = 0.000159473, Final residual = 7.6925e-06, No Iterations 2
smoothSolver:  Solving for Uy, Initial residual = 0.000841445, Final residual = 9.29965e-06, No Iterations 2
DICPCG:  Solving for p, Initial residual = 0.00527857, Final residual = 0.000259605, No Iterations 104
time step continuity errors : sum local = 2.96728e-10, global = -4.9638e-13, cumulative = -2.83086e-09
DICPCG:  Solving for p, Initial residual = 0.00425903, Final residual = 9.61573e-07, No Iterations 399
time step continuity errors : sum local = 1.09791e-12, global = -4.96021e-15, cumulative = -2.83086e-09
ExecutionTime = 98.61 s  ClockTime = 99 s

Time = 5.15

Courant Number mean: 0.00695653 max: 0.113641
smoothSolver:  Solving for Ux, Initial residual = 0.000157605, Final residual = 7.58486e-06, No Iterations 2
smoothSolver:  Solving for Uy, Initial residual = 0.000833717, Final residual = 9.2041e-06, No Iterations 2
DICPCG:  Solving for p, Initial residual = 0.00525499, Final residual = 0.00025928, No Iterations 104
time step continuity errors : sum local = 2.95208e-10, global = -4.91404e-13, cumulative = -2.83136e-09
DICPCG:  Solving for p, Initial residual = 0.00423376, Final residual = 9.39807e-07, No Iterations 399
time step continuity errors : sum local = 1.06886e-12, global = -4.81106e-15, cumulative = -2.83136e-09
ExecutionTime = 99.51 s  ClockTime = 100 s

Time = 5.2

Courant Number mean: 0.00695603 max: 0.113407
smoothSolver:  Solving for Ux, Initial residual = 0.000155774, Final residual = 7.47946e-06, No Iterations 2
smoothSolver:  Solving for Uy, Initial residual = 0.000826126, Final residual = 9.11254e-06, No Iterations 2
DICPCG:  Solving for p, Initial residual = 0.00523003, Final residual = 0.00025819, No Iterations 104
time step continuity errors : sum local = 2.9282e-10, global = -4.89021e-13, cumulative = -2.83185e-09
DICPCG:  Solving for p, Initial residual = 0.00420608, Final residual = 9.50105e-07, No Iterations 399
time step continuity errors : sum local = 1.07635e-12, global = -4.8657e-15, cumulative = -2.83185e-09
ExecutionTime = 100.43 s  ClockTime = 101 s

Time = 5.25

Courant Number mean: 0.00695553 max: 0.113175
smoothSolver:  Solving for Ux, Initial residual = 0.000153979, Final residual = 7.37619e-06, No Iterations 2
smoothSolver:  Solving for Uy, Initial residual = 0.000818643, Final residual = 9.0221e-06, No Iterations 2
DICPCG:  Solving for p, Initial residual = 0.00517147, Final residual = 0.000257168, No Iterations 104
time step continuity errors : sum local = 2.90533e-10, global = -4.7606e-13, cumulative = -2.83233e-09
DICPCG:  Solving for p, Initial residual = 0.00417793, Final residual = 9.16879e-07, No Iterations 399
time step continuity errors : sum local = 1.03473e-12, global = -4.65261e-15, cumulative = -2.83234e-09
ExecutionTime = 101.37 s  ClockTime = 102 s

Time = 5.3

Courant Number mean: 0.00695504 max: 0.112943
smoothSolver:  Solving for Ux, Initial residual = 0.00015222, Final residual = 7.27483e-06, No Iterations 2
smoothSolver:  Solving for Uy, Initial residual = 0.000811332, Final residual = 8.93403e-06, No Iterations 2
DICPCG:  Solving for p, Initial residual = 0.00510451, Final residual = 0.000252122, No Iterations 104
time step continuity errors : sum local = 2.83753e-10, global = -4.76285e-13, cumulative = -2.83281e-09
DICPCG:  Solving for p, Initial residual = 0.00414541, Final residual = 9.34945e-07, No Iterations 399
time step continuity errors : sum local = 1.05114e-12, global = -4.6775e-15, cumulative = -2.83282e-09
ExecutionTime = 102.31 s  ClockTime = 103 s

Time = 5.35

Courant Number mean: 0.00695455 max: 0.112714
smoothSolver:  Solving for Ux, Initial residual = 0.000150495, Final residual = 7.17549e-06, No Iterations 2
smoothSolver:  Solving for Uy, Initial residual = 0.000804115, Final residual = 8.84651e-06, No Iterations 2
DICPCG:  Solving for p, Initial residual = 0.00508423, Final residual = 0.000252237, No Iterations 104
time step continuity errors : sum local = 2.82817e-10, global = -4.71973e-13, cumulative = -2.83329e-09
DICPCG:  Solving for p, Initial residual = 0.00412218, Final residual = 9.275e-07, No Iterations 399
time step continuity errors : sum local = 1.03885e-12, global = -4.62407e-15, cumulative = -2.83329e-09
ExecutionTime = 103.25 s  ClockTime = 104 s

Time = 5.4

Courant Number mean: 0.00695407 max: 0.112485
smoothSolver:  Solving for Ux, Initial residual = 0.000148804, Final residual = 7.0781e-06, No Iterations 2
smoothSolver:  Solving for Uy, Initial residual = 0.000797016, Final residual = 8.76019e-06, No Iterations 2
DICPCG:  Solving for p, Initial residual = 0.00504249, Final residual = 0.000248969, No Iterations 104
time step continuity errors : sum local = 2.78121e-10, global = -4.67173e-13, cumulative = -2.83376e-09
DICPCG:  Solving for p, Initial residual = 0.0040927, Final residual = 9.21619e-07, No Iterations 399
time step continuity errors : sum local = 1.0285e-12, global = -4.52082e-15, cumulative = -2.83376e-09
ExecutionTime = 104.18 s  ClockTime = 105 s

Time = 5.45

Courant Number mean: 0.00695358 max: 0.112258
smoothSolver:  Solving for Ux, Initial residual = 0.000147147, Final residual = 6.98266e-06, No Iterations 2
[...]
time step continuity errors : sum local = 6.48683e-13, global = -5.04385e-14, cumulative = -3.0538e-09
ExecutionTime = 654.63 s  ClockTime = 656 s

Time = 38.7

Courant Number mean: 0.00683518 max: 0.0686224
smoothSolver:  Solving for Ux, Initial residual = 2.25043e-05, Final residual = 1.51827e-06, No Iterations 1
smoothSolver:  Solving for Uy, Initial residual = 0.000174173, Final residual = 4.79555e-06, No Iterations 1
DICPCG:  Solving for p, Initial residual = 0.00176103, Final residual = 8.62147e-05, No Iterations 95
time step continuity errors : sum local = 5.69955e-11, global = -2.19641e-13, cumulative = -3.05402e-09
DICPCG:  Solving for p, Initial residual = 0.00173765, Final residual = 9.965e-07, No Iterations 371
time step continuity errors : sum local = 6.58711e-13, global = -1.04183e-15, cumulative = -3.05402e-09
ExecutionTime = 655.47 s  ClockTime = 657 s

Time = 38.75

Courant Number mean: 0.00683509 max: 0.0685925
smoothSolver:  Solving for Ux, Initial residual = 2.24841e-05, Final residual = 1.51586e-06, No Iterations 1
smoothSolver:  Solving for Uy, Initial residual = 0.000174039, Final residual = 4.78849e-06, No Iterations 1
DICPCG:  Solving for p, Initial residual = 0.00175999, Final residual = 8.66555e-05, No Iterations 95
time step continuity errors : sum local = 5.72781e-11, global = -9.3186e-14, cumulative = -3.05411e-09
DICPCG:  Solving for p, Initial residual = 0.00173565, Final residual = 9.94477e-07, No Iterations 273
time step continuity errors : sum local = 6.57261e-13, global = -5.2178e-14, cumulative = -3.05416e-09
ExecutionTime = 656.14 s  ClockTime = 658 s

Time = 38.8

Courant Number mean: 0.00683499 max: 0.0685627
smoothSolver:  Solving for Ux, Initial residual = 2.24617e-05, Final residual = 1.51348e-06, No Iterations 1
smoothSolver:  Solving for Uy, Initial residual = 0.000173893, Final residual = 4.78153e-06, No Iterations 1
DICPCG:  Solving for p, Initial residual = 0.00175467, Final residual = 8.57844e-05, No Iterations 95
time step continuity errors : sum local = 5.66857e-11, global = -2.23494e-13, cumulative = -3.05439e-09
DICPCG:  Solving for p, Initial residual = 0.00173306, Final residual = 9.91504e-07, No Iterations 371
time step continuity errors : sum local = 6.55115e-13, global = -1.01042e-15, cumulative = -3.05439e-09
ExecutionTime = 656.97 s  ClockTime = 659 s

Time = 38.85

Courant Number mean: 0.0068349 max: 0.0685329
smoothSolver:  Solving for Ux, Initial residual = 2.24416e-05, Final residual = 1.51109e-06, No Iterations 1
smoothSolver:  Solving for Uy, Initial residual = 0.000173757, Final residual = 4.77451e-06, No Iterations 1
DICPCG:  Solving for p, Initial residual = 0.00175749, Final residual = 8.61596e-05, No Iterations 95
time step continuity errors : sum local = 5.69254e-11, global = -8.94295e-14, cumulative = -3.05448e-09
DICPCG:  Solving for p, Initial residual = 0.001731, Final residual = 9.88383e-07, No Iterations 273
time step continuity errors : sum local = 6.52951e-13, global = -4.90964e-14, cumulative = -3.05453e-09
ExecutionTime = 657.64 s  ClockTime = 660 s

Time = 38.9

Courant Number mean: 0.0068348 max: 0.0685031
smoothSolver:  Solving for Ux, Initial residual = 2.24195e-05, Final residual = 1.50873e-06, No Iterations 1
smoothSolver:  Solving for Uy, Initial residual = 0.000173614, Final residual = 4.76762e-06, No Iterations 1
DICPCG:  Solving for p, Initial residual = 0.00175948, Final residual = 8.60143e-05, No Iterations 95
time step continuity errors : sum local = 5.68132e-11, global = -2.17477e-13, cumulative = -3.05474e-09
DICPCG:  Solving for p, Initial residual = 0.00172958, Final residual = 9.91089e-07, No Iterations 371
time step continuity errors : sum local = 6.54561e-13, global = -1.05687e-15, cumulative = -3.05475e-09
ExecutionTime = 658.47 s  ClockTime = 660 s

Time = 38.95

Courant Number mean: 0.00683471 max: 0.0684734
smoothSolver:  Solving for Ux, Initial residual = 2.23994e-05, Final residual = 1.50633e-06, No Iterations 1
smoothSolver:  Solving for Uy, Initial residual = 0.000173482, Final residual = 4.76058e-06, No Iterations 1
DICPCG:  Solving for p, Initial residual = 0.00175207, Final residual = 8.57932e-05, No Iterations 95
time step continuity errors : sum local = 5.66588e-11, global = -9.20801e-14, cumulative = -3.05484e-09
DICPCG:  Solving for p, Initial residual = 0.00172669, Final residual = 9.91399e-07, No Iterations 273
time step continuity errors : sum local = 6.5466e-13, global = -5.25046e-14, cumulative = -3.05489e-09
ExecutionTime = 659.15 s  ClockTime = 661 s

Time = 39

Courant Number mean: 0.00683462 max: 0.0684437
smoothSolver:  Solving for Ux, Initial residual = 2.23773e-05, Final residual = 1.50398e-06, No Iterations 1
smoothSolver:  Solving for Uy, Initial residual = 0.00017334, Final residual = 4.75378e-06, No Iterations 1
DICPCG:  Solving for p, Initial residual = 0.0017528, Final residual = 8.58636e-05, No Iterations 95
time step continuity errors : sum local = 5.66888e-11, global = -2.23588e-13, cumulative = -3.05511e-09
DICPCG:  Solving for p, Initial residual = 0.00172512, Final residual = 9.92353e-07, No Iterations 371
time step continuity errors : sum local = 6.55103e-13, global = -1.01396e-15, cumulative = -3.05511e-09
ExecutionTime = 660.63 s  ClockTime = 663 s

Time = 39.05

Courant Number mean: 0.00683452 max: 0.068414
smoothSolver:  Solving for Ux, Initial residual = 2.23573e-05, Final residual = 1.50161e-06, No Iterations 1
smoothSolver:  Solving for Uy, Initial residual = 0.000173205, Final residual = 4.74682e-06, No Iterations 1
DICPCG:  Solving for p, Initial residual = 0.00174794, Final residual = 8.56961e-05, No Iterations 95
time step continuity errors : sum local = 5.65699e-11, global = -8.8175e-14, cumulative = -3.0552e-09
DICPCG:  Solving for p, Initial residual = 0.00172243, Final residual = 9.83811e-07, No Iterations 273
time step continuity errors : sum local = 6.49367e-13, global = -4.88539e-14, cumulative = -3.05525e-09
ExecutionTime = 661.3 s  ClockTime = 663 s

Time = 39.1

Courant Number mean: 0.00683443 max: 0.0683844
smoothSolver:  Solving for Ux, Initial residual = 2.23353e-05, Final residual = 1.49927e-06, No Iterations 1
smoothSolver:  Solving for Uy, Initial residual = 0.000173066, Final residual = 4.73998e-06, No Iterations 1
DICPCG:  Solving for p, Initial residual = 0.00174843, Final residual = 8.56071e-05, No Iterations 95
time step continuity errors : sum local = 5.64948e-11, global = -2.16656e-13, cumulative = -3.05547e-09
DICPCG:  Solving for p, Initial residual = 0.00172087, Final residual = 9.86898e-07, No Iterations 371
time step continuity errors : sum local = 6.51217e-13, global = -1.06687e-15, cumulative = -3.05547e-09
ExecutionTime = 662.14 s  ClockTime = 664 s

Time = 39.15

Courant Number mean: 0.00683433 max: 0.0683548
smoothSolver:  Solving for Ux, Initial residual = 2.23155e-05, Final residual = 1.49691e-06, No Iterations 1
smoothSolver:  Solving for Uy, Initial residual = 0.00017293, Final residual = 4.73308e-06, No Iterations 1
DICPCG:  Solving for p, Initial residual = 0.00174136, Final residual = 8.53685e-05, No Iterations 95
time step continuity errors : sum local = 5.63286e-11, global = -9.15881e-14, cumulative = -3.05556e-09
DICPCG:  Solving for p, Initial residual = 0.00171808, Final residual = 9.85451e-07, No Iterations 273
time step continuity errors : sum local = 6.50159e-13, global = -5.23113e-14, cumulative = -3.05561e-09
ExecutionTime = 662.81 s  ClockTime = 665 s

Time = 39.2

Courant Number mean: 0.00683424 max: 0.0683253
smoothSolver:  Solving for Ux, Initial residual = 2.22937e-05, Final residual = 1.49458e-06, No Iterations 1
smoothSolver:  Solving for Uy, Initial residual = 0.00017279, Final residual = 4.72628e-06, No Iterations 1
DICPCG:  Solving for p, Initial residual = 0.00173767, Final residual = 8.49403e-05, No Iterations 95
time step continuity errors : sum local = 5.60301e-11, global = -2.22198e-13, cumulative = -3.05584e-09
DICPCG:  Solving for p, Initial residual = 0.00171597, Final residual = 9.85681e-07, No Iterations 371
time step continuity errors : sum local = 6.50133e-13, global = -1.02243e-15, cumulative = -3.05584e-09
ExecutionTime = 663.65 s  ClockTime = 666 s

Time = 39.25

Courant Number mean: 0.00683415 max: 0.0682958
smoothSolver:  Solving for Ux, Initial residual = 2.2274e-05, Final residual = 1.49224e-06, No Iterations 1
smoothSolver:  Solving for Uy, Initial residual = 0.000172657, Final residual = 4.71942e-06, No Iterations 1
DICPCG:  Solving for p, Initial residual = 0.00173597, Final residual = 8.51087e-05, No Iterations 95
time step continuity errors : sum local = 5.61332e-11, global = -8.74249e-14, cumulative = -3.05592e-09
DICPCG:  Solving for p, Initial residual = 0.00171374, Final residual = 9.60095e-07, No Iterations 273
time step continuity errors : sum local = 6.3316e-13, global = -4.92538e-14, cumulative = -3.05597e-09
ExecutionTime = 664.35 s  ClockTime = 666 s

Time = 39.3

Courant Number mean: 0.00683405 max: 0.0682663
smoothSolver:  Solving for Ux, Initial residual = 2.22522e-05, Final residual = 1.48992e-06, No Iterations 1
smoothSolver:  Solving for Uy, Initial residual = 0.000172518, Final residual = 4.71265e-06, No Iterations 1
DICPCG:  Solving for p, Initial residual = 0.0017348, Final residual = 8.48863e-05, No Iterations 95
time step continuity errors : sum local = 5.59708e-11, global = -2.15204e-13, cumulative = -3.05619e-09
DICPCG:  Solving for p, Initial residual = 0.00171184, Final residual = 9.77054e-07, No Iterations 371
time step continuity errors : sum local = 6.4417e-13, global = -1.07588e-15, cumulative = -3.05619e-09
ExecutionTime = 665.21 s  ClockTime = 667 s

Time = 39.35

Courant Number mean: 0.00683396 max: 0.0682368
smoothSolver:  Solving for Ux, Initial residual = 2.22326e-05, Final residual = 1.48759e-06, No Iterations 1
smoothSolver:  Solving for Uy, Initial residual = 0.000172385, Final residual = 4.70583e-06, No Iterations 1
DICPCG:  Solving for p, Initial residual = 0.00173375, Final residual = 8.51262e-05, No Iterations 95
time step continuity errors : sum local = 5.61209e-11, global = -8.77386e-14, cumulative = -3.05628e-09
DICPCG:  Solving for p, Initial residual = 0.00170974, Final residual = 9.80229e-07, No Iterations 273
time step continuity errors : sum local = 6.46166e-13, global = -5.11067e-14, cumulative = -3.05633e-09
ExecutionTime = 665.91 s  ClockTime = 668 s

Time = 39.4

Courant Number mean: 0.00683387 max: 0.0682074
smoothSolver:  Solving for Ux, Initial residual = 2.2211e-05, Final residual = 1.48529e-06, No Iterations 1
smoothSolver:  Solving for Uy, Initial residual = 0.000172247, Final residual = 4.69911e-06, No Iterations 1
DICPCG:  Solving for p, Initial residual = 0.00173472, Final residual = 8.49781e-05, No Iterations 95
time step continuity errors : sum local = 5.60076e-11, global = -2.25948e-13, cumulative = -3.05655e-09
DICPCG:  Solving for p, Initial residual = 0.00170818, Final residual = 9.79601e-07, No Iterations 371
time step continuity errors : sum local = 6.45575e-13, global = -1.0365e-15, cumulative = -3.05656e-09
ExecutionTime = 666.78 s  ClockTime = 669 s

Time = 39.45

Courant Number mean: 0.00683377 max: 0.0681781
smoothSolver:  Solving for Ux, Initial residual = 2.21916e-05, Final residual = 1.48297e-06, No Iterations 1
smoothSolver:  Solving for Uy, Initial residual = 0.000172112, Final residual = 4.6923e-06, No Iterations 1
DICPCG:  Solving for p, Initial residual = 0.00173008, Final residual = 8.48364e-05, No Iterations 95
time step continuity errors : sum local = 5.59064e-11, global = -8.82729e-14, cumulative = -3.05664e-09
DICPCG:  Solving for p, Initial residual = 0.00170543, Final residual = 9.75557e-07, No Iterations 273
time step continuity errors : sum local = 6.42815e-13, global = -4.96899e-14, cumulative = -3.05669e-09
ExecutionTime = 667.49 s  ClockTime = 669 s

Time = 39.5

Courant Number mean: 0.00683368 max: 0.0681487
smoothSolver:  Solving for Ux, Initial residual = 2.21703e-05, Final residual = 1.48068e-06, No Iterations 1
smoothSolver:  Solving for Uy, Initial residual = 0.000171973, Final residual = 4.68562e-06, No Iterations 1
DICPCG:  Solving for p, Initial residual = 0.00173011, Final residual = 8.47865e-05, No Iterations 95
time step continuity errors : sum local = 5.58581e-11, global = -2.16684e-13, cumulative = -3.05691e-09
DICPCG:  Solving for p, Initial residual = 0.00170379, Final residual = 9.81311e-07, No Iterations 371
time step continuity errors : sum local = 6.46437e-13, global = -1.09394e-15, cumulative = -3.05691e-09
ExecutionTime = 668.36 s  ClockTime = 670 s

Time = 39.55

Courant Number mean: 0.00683359 max: 0.0681194
smoothSolver:  Solving for Ux, Initial residual = 2.21511e-05, Final residual = 1.47838e-06, No Iterations 1
smoothSolver:  Solving for Uy, Initial residual = 0.000171841, Final residual = 4.67884e-06, No Iterations 1
DICPCG:  Solving for p, Initial residual = 0.0017299, Final residual = 8.52011e-05, No Iterations 95
time step continuity errors : sum local = 5.61237e-11, global = -8.93111e-14, cumulative = -3.057e-09
DICPCG:  Solving for p, Initial residual = 0.00170209, Final residual = 9.73881e-07, No Iterations 273
time step continuity errors : sum local = 6.41448e-13, global = -4.99371e-14, cumulative = -3.05705e-09
ExecutionTime = 669.06 s  ClockTime = 671 s

Time = 39.6

Courant Number mean: 0.00683349 max: 0.0680902
smoothSolver:  Solving for Ux, Initial residual = 2.21302e-05, Final residual = 1.47612e-06, No Iterations 1
smoothSolver:  Solving for Uy, Initial residual = 0.000171701, Final residual = 4.67231e-06, No Iterations 1
DICPCG:  Solving for p, Initial residual = 0.00173476, Final residual = 8.55734e-05, No Iterations 95
time step continuity errors : sum local = 5.63539e-11, global = -2.16839e-13, cumulative = -3.05727e-09
DICPCG:  Solving for p, Initial residual = 0.00170147, Final residual = 9.66307e-07, No Iterations 371
time step continuity errors : sum local = 6.36302e-13, global = -1.11846e-15, cumulative = -3.05727e-09
ExecutionTime = 669.92 s  ClockTime = 672 s

Time = 39.65

Courant Number mean: 0.0068334 max: 0.068061
smoothSolver:  Solving for Ux, Initial residual = 2.21122e-05, Final residual = 1.47386e-06, No Iterations 1
smoothSolver:  Solving for Uy, Initial residual = 0.000171567, Final residual = 4.66563e-06, No Iterations 1
DICPCG:  Solving for p, Initial residual = 0.00173957, Final residual = 8.52307e-05, No Iterations 95
time step continuity errors : sum local = 5.61195e-11, global = -8.85771e-14, cumulative = -3.05736e-09
DICPCG:  Solving for p, Initial residual = 0.00170038, Final residual = 9.71885e-07, No Iterations 273
time step continuity errors : sum local = 6.39847e-13, global = -5.38636e-14, cumulative = -3.05741e-09
ExecutionTime = 670.62 s  ClockTime = 673 s

Time = 39.7

Courant Number mean: 0.00683331 max: 0.0680318
smoothSolver:  Solving for Ux, Initial residual = 2.20884e-05, Final residual = 1.47151e-06, No Iterations 1
smoothSolver:  Solving for Uy, Initial residual = 0.000171438, Final residual = 4.659e-06, No Iterations 1
DICPCG:  Solving for p, Initial residual = 0.0017248, Final residual = 8.44392e-05, No Iterations 95
time step continuity errors : sum local = 5.55811e-11, global = -2.23343e-13, cumulative = -3.05763e-09
DICPCG:  Solving for p, Initial residual = 0.00169602, Final residual = 9.67788e-07, No Iterations 371
time step continuity errors : sum local = 6.36967e-13, global = -9.69919e-16, cumulative = -3.05763e-09
ExecutionTime = 671.5 s  ClockTime = 673 s

Time = 39.75

Courant Number mean: 0.00683322 max: 0.0680026
smoothSolver:  Solving for Ux, Initial residual = 2.20686e-05, Final residual = 1.46921e-06, No Iterations 1
smoothSolver:  Solving for Uy, Initial residual = 0.000171311, Final residual = 4.65241e-06, No Iterations 1
DICPCG:  Solving for p, Initial residual = 0.00173521, Final residual = 8.51189e-05, No Iterations 95
time step continuity errors : sum local = 5.60192e-11, global = -8.40911e-14, cumulative = -3.05772e-09
DICPCG:  Solving for p, Initial residual = 0.00169599, Final residual = 9.71885e-07, No Iterations 273
time step continuity errors : sum local = 6.39543e-13, global = -4.99162e-14, cumulative = -3.05777e-09
ExecutionTime = 672.2 s  ClockTime = 674 s

Time = 39.8

Courant Number mean: 0.00683312 max: 0.0679735
smoothSolver:  Solving for Ux, Initial residual = 2.20467e-05, Final residual = 1.46689e-06, No Iterations 1
smoothSolver:  Solving for Uy, Initial residual = 0.000171181, Final residual = 4.64587e-06, No Iterations 1
DICPCG:  Solving for p, Initial residual = 0.00172327, Final residual = 8.41905e-05, No Iterations 95
time step continuity errors : sum local = 5.53911e-11, global = -2.16051e-13, cumulative = -3.05798e-09
DICPCG:  Solving for p, Initial residual = 0.0016918, Final residual = 9.66396e-07, No Iterations 371
time step continuity errors : sum local = 6.35751e-13, global = -1.02364e-15, cumulative = -3.05799e-09
ExecutionTime = 673.06 s  ClockTime = 675 s

Time = 39.85

Courant Number mean: 0.00683303 max: 0.0679444
smoothSolver:  Solving for Ux, Initial residual = 2.20274e-05, Final residual = 1.46461e-06, No Iterations 1
smoothSolver:  Solving for Uy, Initial residual = 0.000171053, Final residual = 4.63933e-06, No Iterations 1
DICPCG:  Solving for p, Initial residual = 0.0017112, Final residual = 8.37433e-05, No Iterations 95
time step continuity errors : sum local = 5.50888e-11, global = -8.77873e-14, cumulative = -3.05807e-09
DICPCG:  Solving for p, Initial residual = 0.00168834, Final residual = 9.65507e-07, No Iterations 273
time step continuity errors : sum local = 6.3507e-13, global = -4.94498e-14, cumulative = -3.05812e-09
ExecutionTime = 673.77 s  ClockTime = 676 s

Time = 39.9

Courant Number mean: 0.00683294 max: 0.0679154
smoothSolver:  Solving for Ux, Initial residual = 2.20063e-05, Final residual = 1.46238e-06, No Iterations 1
smoothSolver:  Solving for Uy, Initial residual = 0.000170915, Final residual = 4.63269e-06, No Iterations 1
DICPCG:  Solving for p, Initial residual = 0.00171114, Final residual = 8.35739e-05, No Iterations 95
time step continuity errors : sum local = 5.49621e-11, global = -2.14537e-13, cumulative = -3.05834e-09
DICPCG:  Solving for p, Initial residual = 0.00168671, Final residual = 9.59506e-07, No Iterations 371
time step continuity errors : sum local = 6.30954e-13, global = -1.10738e-15, cumulative = -3.05834e-09
ExecutionTime = 674.64 s  ClockTime = 677 s

Time = 39.95

Courant Number mean: 0.00683285 max: 0.0678864
smoothSolver:  Solving for Ux, Initial residual = 2.19873e-05, Final residual = 1.46012e-06, No Iterations 1
smoothSolver:  Solving for Uy, Initial residual = 0.000170786, Final residual = 4.62609e-06, No Iterations 1
DICPCG:  Solving for p, Initial residual = 0.0017168, Final residual = 8.3939e-05, No Iterations 95
time step continuity errors : sum local = 5.51941e-11, global = -8.85927e-14, cumulative = -3.05843e-09
DICPCG:  Solving for p, Initial residual = 0.00168471, Final residual = 9.6372e-07, No Iterations 273
time step continuity errors : sum local = 6.33621e-13, global = -4.97439e-14, cumulative = -3.05848e-09
ExecutionTime = 675.34 s  ClockTime = 677 s

Time = 40

Courant Number mean: 0.00683276 max: 0.0678574
smoothSolver:  Solving for Ux, Initial residual = 2.19662e-05, Final residual = 1.4579e-06, No Iterations 1
smoothSolver:  Solving for Uy, Initial residual = 0.000170648, Final residual = 4.61962e-06, No Iterations 1
DICPCG:  Solving for p, Initial residual = 0.00170831, Final residual = 8.3361e-05, No Iterations 95
time step continuity errors : sum local = 5.47984e-11, global = -2.15136e-13, cumulative = -3.05869e-09
DICPCG:  Solving for p, Initial residual = 0.00168257, Final residual = 9.50148e-07, No Iterations 371
time step continuity errors : sum local = 6.2453e-13, global = -1.09739e-15, cumulative = -3.05869e-09
ExecutionTime = 676.9 s  ClockTime = 679 s

End

