/*---------------------------------------------------------------------------*\
  =========                 |
  \\      /  F ield         | OpenFOAM: The Open Source CFD Toolbox
   \\    /   O peration     | Website:  https://openfoam.org
    \\  /    A nd           | Version:  7
     \\/     M anipulation  |
\*---------------------------------------------------------------------------*/
Build  : 7-49b2b3b8b082
Exec   : icoFoam
Date   : May 14 2021
Time   : 15:46:59
Host   : "c403-023.stampede2.tacc.utexas.edu"
PID    : 16913
I/O    : uncollated
Case   : /work2/06782/kenmeyer/stampede2/final_serial/COE347/finalProject/wedge05
nProcs : 1
sigFpe : Enabling floating point exception trapping (FOAM_SIGFPE).
fileModificationChecking : Monitoring run-time modified files using timeStampMaster (fileModificationSkew 10)
allowSystemOperations : Allowing user-supplied system call operations

// * * * * * * * * * * * * * * * * * * * * * * * * * * * * * * * * * * * * * //
Create time

Create mesh for time = 0

Reading transportProperties

Reading field p

Reading field U

Reading/calculating face flux field phi


Starting time loop

Time = 0.05

Courant Number mean: 0.00377291 max: 0.0843347
smoothSolver:  Solving for Ux, Initial residual = 1, Final residual = 5.56302e-06, No Iterations 7
smoothSolver:  Solving for Uy, Initial residual = 0, Final residual = 0, No Iterations 0
DICPCG:  Solving for p, Initial residual = 1, Final residual = 0.0465353, No Iterations 188
time step continuity errors : sum local = 1.17263e-07, global = 9.03679e-10, cumulative = 9.03679e-10
DICPCG:  Solving for p, Initial residual = 0.179481, Final residual = 9.81092e-07, No Iterations 251
time step continuity errors : sum local = 1.44436e-11, global = -1.09844e-13, cumulative = 9.0357e-10
ExecutionTime = 0.41 s  ClockTime = 1 s

Time = 0.1

Courant Number mean: 0.00378641 max: 0.121153
smoothSolver:  Solving for Ux, Initial residual = 0.240421, Final residual = 3.56529e-06, No Iterations 5
smoothSolver:  Solving for Uy, Initial residual = 0.176665, Final residual = 2.75734e-06, No Iterations 5
DICPCG:  Solving for p, Initial residual = 0.203959, Final residual = 0.00965543, No Iterations 187
time step continuity errors : sum local = 1.3803e-07, global = -1.19372e-09, cumulative = -2.90153e-10
DICPCG:  Solving for p, Initial residual = 0.536463, Final residual = 9.2085e-07, No Iterations 259
time step continuity errors : sum local = 4.51658e-12, global = -1.64595e-14, cumulative = -2.90169e-10
ExecutionTime = 0.59 s  ClockTime = 1 s

Time = 0.15

Courant Number mean: 0.00378541 max: 0.112128
smoothSolver:  Solving for Ux, Initial residual = 0.00789406, Final residual = 4.30626e-06, No Iterations 4
smoothSolver:  Solving for Uy, Initial residual = 0.00480011, Final residual = 6.53173e-06, No Iterations 3
DICPCG:  Solving for p, Initial residual = 0.415964, Final residual = 0.0198425, No Iterations 56
time step continuity errors : sum local = 3.46902e-08, global = -1.17098e-10, cumulative = -4.07267e-10
DICPCG:  Solving for p, Initial residual = 0.108971, Final residual = 9.84468e-07, No Iterations 247
time step continuity errors : sum local = 1.48832e-12, global = -1.47412e-14, cumulative = -4.07282e-10
ExecutionTime = 0.72 s  ClockTime = 1 s

Time = 0.2

Courant Number mean: 0.00378245 max: 0.10034
smoothSolver:  Solving for Ux, Initial residual = 0.00756021, Final residual = 2.42631e-06, No Iterations 4
smoothSolver:  Solving for Uy, Initial residual = 0.00800971, Final residual = 3.24304e-06, No Iterations 3
DICPCG:  Solving for p, Initial residual = 0.111684, Final residual = 0.00556777, No Iterations 54
time step continuity errors : sum local = 9.61085e-09, global = 2.08399e-11, cumulative = -3.86442e-10
DICPCG:  Solving for p, Initial residual = 0.0248815, Final residual = 9.95086e-07, No Iterations 225
time step continuity errors : sum local = 1.66846e-12, global = 1.45356e-14, cumulative = -3.86427e-10
ExecutionTime = 0.84 s  ClockTime = 1 s

Time = 0.25

Courant Number mean: 0.00378008 max: 0.0936876
smoothSolver:  Solving for Ux, Initial residual = 0.0049402, Final residual = 8.22472e-06, No Iterations 3
smoothSolver:  Solving for Uy, Initial residual = 0.00648004, Final residual = 3.05151e-06, No Iterations 3
DICPCG:  Solving for p, Initial residual = 0.0723383, Final residual = 0.00355598, No Iterations 54
time step continuity errors : sum local = 5.69158e-09, global = -3.88983e-12, cumulative = -3.90317e-10
DICPCG:  Solving for p, Initial residual = 0.0124267, Final residual = 9.01906e-07, No Iterations 220
time step continuity errors : sum local = 1.43176e-12, global = -1.84781e-14, cumulative = -3.90335e-10
ExecutionTime = 0.95 s  ClockTime = 1 s

Time = 0.3

Courant Number mean: 0.00377806 max: 0.0902505
smoothSolver:  Solving for Ux, Initial residual = 0.00367357, Final residual = 6.09027e-06, No Iterations 3
smoothSolver:  Solving for Uy, Initial residual = 0.00562417, Final residual = 2.67357e-06, No Iterations 3
DICPCG:  Solving for p, Initial residual = 0.055575, Final residual = 0.00269243, No Iterations 54
time step continuity errors : sum local = 4.17337e-09, global = -1.77641e-12, cumulative = -3.92112e-10
DICPCG:  Solving for p, Initial residual = 0.00917702, Final residual = 9.76153e-07, No Iterations 218
time step continuity errors : sum local = 1.50454e-12, global = -1.70513e-14, cumulative = -3.92129e-10
ExecutionTime = 1.07 s  ClockTime = 1 s

Time = 0.35

Courant Number mean: 0.00377628 max: 0.0868305
smoothSolver:  Solving for Ux, Initial residual = 0.00290861, Final residual = 4.7403e-06, No Iterations 3
smoothSolver:  Solving for Uy, Initial residual = 0.00500953, Final residual = 2.37969e-06, No Iterations 3
DICPCG:  Solving for p, Initial residual = 0.043799, Final residual = 0.0021772, No Iterations 53
time step continuity errors : sum local = 3.30102e-09, global = -1.29517e-12, cumulative = -3.93424e-10
DICPCG:  Solving for p, Initial residual = 0.00700389, Final residual = 9.8768e-07, No Iterations 216
time step continuity errors : sum local = 1.49366e-12, global = -7.93991e-15, cumulative = -3.93432e-10
ExecutionTime = 1.19 s  ClockTime = 1 s

Time = 0.4

Courant Number mean: 0.00377469 max: 0.083574
smoothSolver:  Solving for Ux, Initial residual = 0.00240635, Final residual = 3.82553e-06, No Iterations 3
smoothSolver:  Solving for Uy, Initial residual = 0.0045446, Final residual = 2.13624e-06, No Iterations 3
DICPCG:  Solving for p, Initial residual = 0.0358906, Final residual = 0.00176123, No Iterations 53
time step continuity errors : sum local = 2.63135e-09, global = -9.85379e-13, cumulative = -3.94417e-10
DICPCG:  Solving for p, Initial residual = 0.005586, Final residual = 9.55635e-07, No Iterations 215
time step continuity errors : sum local = 1.42562e-12, global = -8.72837e-15, cumulative = -3.94426e-10
ExecutionTime = 1.3 s  ClockTime = 1 s

Time = 0.45

Courant Number mean: 0.00377325 max: 0.0805405
smoothSolver:  Solving for Ux, Initial residual = 0.00205856, Final residual = 3.17123e-06, No Iterations 3
smoothSolver:  Solving for Uy, Initial residual = 0.00418178, Final residual = 1.93266e-06, No Iterations 3
DICPCG:  Solving for p, Initial residual = 0.0297441, Final residual = 0.00144139, No Iterations 53
time step continuity errors : sum local = 2.128e-09, global = -7.70706e-13, cumulative = -3.95197e-10
DICPCG:  Solving for p, Initial residual = 0.00451396, Final residual = 9.07192e-07, No Iterations 215
time step continuity errors : sum local = 1.33673e-12, global = -1.87194e-15, cumulative = -3.95199e-10
ExecutionTime = 1.42 s  ClockTime = 2 s

Time = 0.5

Courant Number mean: 0.00377192 max: 0.0777451
smoothSolver:  Solving for Ux, Initial residual = 0.00180096, Final residual = 2.68429e-06, No Iterations 3
smoothSolver:  Solving for Uy, Initial residual = 0.00388986, Final residual = 9.74809e-06, No Iterations 2
DICPCG:  Solving for p, Initial residual = 0.0249074, Final residual = 0.00122406, No Iterations 53
time step continuity errors : sum local = 1.78874e-09, global = -6.11605e-13, cumulative = -3.9581e-10
DICPCG:  Solving for p, Initial residual = 0.0041179, Final residual = 9.60424e-07, No Iterations 216
time step continuity errors : sum local = 1.40148e-12, global = 1.49434e-15, cumulative = -3.95809e-10
ExecutionTime = 1.72 s  ClockTime = 2 s

Time = 0.55

Courant Number mean: 0.00377069 max: 0.0755799
smoothSolver:  Solving for Ux, Initial residual = 0.0016025, Final residual = 2.31065e-06, No Iterations 3
smoothSolver:  Solving for Uy, Initial residual = 0.00364825, Final residual = 8.98122e-06, No Iterations 2
DICPCG:  Solving for p, Initial residual = 0.0214131, Final residual = 0.0010336, No Iterations 53
time step continuity errors : sum local = 1.49708e-09, global = -5.1795e-13, cumulative = -3.96327e-10
DICPCG:  Solving for p, Initial residual = 0.00351513, Final residual = 9.49736e-07, No Iterations 215
time step continuity errors : sum local = 1.3732e-12, global = 4.12052e-16, cumulative = -3.96326e-10
ExecutionTime = 1.84 s  ClockTime = 2 s

Time = 0.6

Courant Number mean: 0.00376954 max: 0.0740484
smoothSolver:  Solving for Ux, Initial residual = 0.00144561, Final residual = 2.01649e-06, No Iterations 3
smoothSolver:  Solving for Uy, Initial residual = 0.0034464, Final residual = 8.30488e-06, No Iterations 2
DICPCG:  Solving for p, Initial residual = 0.0187993, Final residual = 0.00093258, No Iterations 52
time step continuity errors : sum local = 1.33856e-09, global = -4.35575e-13, cumulative = -3.96762e-10
DICPCG:  Solving for p, Initial residual = 0.0031134, Final residual = 9.5135e-07, No Iterations 214
time step continuity errors : sum local = 1.36209e-12, global = -3.42017e-16, cumulative = -3.96762e-10
ExecutionTime = 1.95 s  ClockTime = 2 s

Time = 0.65

Courant Number mean: 0.00376846 max: 0.0726551
smoothSolver:  Solving for Ux, Initial residual = 0.00131817, Final residual = 9.44386e-06, No Iterations 2
smoothSolver:  Solving for Uy, Initial residual = 0.00327382, Final residual = 7.71277e-06, No Iterations 2
DICPCG:  Solving for p, Initial residual = 0.0167102, Final residual = 0.000823295, No Iterations 54
time step continuity errors : sum local = 1.17005e-09, global = -3.78848e-13, cumulative = -3.97141e-10
DICPCG:  Solving for p, Initial residual = 0.00324473, Final residual = 9.78121e-07, No Iterations 210
time step continuity errors : sum local = 1.38579e-12, global = 9.32197e-15, cumulative = -3.97132e-10
ExecutionTime = 2.06 s  ClockTime = 2 s

Time = 0.7

Courant Number mean: 0.00376745 max: 0.0713315
smoothSolver:  Solving for Ux, Initial residual = 0.00121071, Final residual = 8.4722e-06, No Iterations 2
smoothSolver:  Solving for Uy, Initial residual = 0.00311567, Final residual = 7.18725e-06, No Iterations 2
DICPCG:  Solving for p, Initial residual = 0.0150056, Final residual = 0.000744798, No Iterations 53
time step continuity errors : sum local = 1.04763e-09, global = -4.31366e-13, cumulative = -3.97563e-10
DICPCG:  Solving for p, Initial residual = 0.00292813, Final residual = 9.83428e-07, No Iterations 211
time step continuity errors : sum local = 1.37872e-12, global = 8.88957e-15, cumulative = -3.97554e-10
ExecutionTime = 2.17 s  ClockTime = 2 s

Time = 0.75

Courant Number mean: 0.00376648 max: 0.0700734
smoothSolver:  Solving for Ux, Initial residual = 0.0011223, Final residual = 7.65449e-06, No Iterations 2
smoothSolver:  Solving for Uy, Initial residual = 0.00298506, Final residual = 6.72876e-06, No Iterations 2
DICPCG:  Solving for p, Initial residual = 0.0137518, Final residual = 0.000668346, No Iterations 53
time step continuity errors : sum local = 9.30447e-10, global = -3.60039e-13, cumulative = -3.97914e-10
DICPCG:  Solving for p, Initial residual = 0.00269936, Final residual = 9.77151e-07, No Iterations 210
time step continuity errors : sum local = 1.35508e-12, global = 1.45119e-14, cumulative = -3.979e-10
ExecutionTime = 2.29 s  ClockTime = 2 s

Time = 0.8

Courant Number mean: 0.00376556 max: 0.068879
smoothSolver:  Solving for Ux, Initial residual = 0.00104654, Final residual = 6.96483e-06, No Iterations 2
smoothSolver:  Solving for Uy, Initial residual = 0.00286818, Final residual = 6.31839e-06, No Iterations 2
DICPCG:  Solving for p, Initial residual = 0.012506, Final residual = 0.000620037, No Iterations 53
time step continuity errors : sum local = 8.54115e-10, global = -2.98772e-13, cumulative = -3.98199e-10
DICPCG:  Solving for p, Initial residual = 0.00249498, Final residual = 9.04022e-07, No Iterations 210
time step continuity errors : sum local = 1.24053e-12, global = 1.33777e-14, cumulative = -3.98185e-10
ExecutionTime = 2.4 s  ClockTime = 3 s

Time = 0.85

Courant Number mean: 0.00376468 max: 0.0677452
smoothSolver:  Solving for Ux, Initial residual = 0.000981043, Final residual = 6.37564e-06, No Iterations 2
smoothSolver:  Solving for Uy, Initial residual = 0.00276375, Final residual = 5.94976e-06, No Iterations 2
DICPCG:  Solving for p, Initial residual = 0.0116407, Final residual = 0.000579439, No Iterations 52
time step continuity errors : sum local = 7.90048e-10, global = -2.89855e-13, cumulative = -3.98475e-10
DICPCG:  Solving for p, Initial residual = 0.00234789, Final residual = 9.59201e-07, No Iterations 209
time step continuity errors : sum local = 1.30282e-12, global = 1.42794e-14, cumulative = -3.98461e-10
ExecutionTime = 2.51 s  ClockTime = 3 s

Time = 0.9

Courant Number mean: 0.00376384 max: 0.0666687
smoothSolver:  Solving for Ux, Initial residual = 0.000923684, Final residual = 5.86885e-06, No Iterations 2
smoothSolver:  Solving for Uy, Initial residual = 0.00266961, Final residual = 5.61677e-06, No Iterations 2
DICPCG:  Solving for p, Initial residual = 0.0110913, Final residual = 0.000546336, No Iterations 52
time step continuity errors : sum local = 7.37289e-10, global = -2.57867e-13, cumulative = -3.98719e-10
DICPCG:  Solving for p, Initial residual = 0.00225016, Final residual = 8.90993e-07, No Iterations 209
time step continuity errors : sum local = 1.19752e-12, global = 1.38211e-14, cumulative = -3.98705e-10
ExecutionTime = 2.62 s  ClockTime = 3 s

Time = 0.95

Courant Number mean: 0.00376302 max: 0.065646
smoothSolver:  Solving for Ux, Initial residual = 0.000873086, Final residual = 5.42904e-06, No Iterations 2
smoothSolver:  Solving for Uy, Initial residual = 0.00258383, Final residual = 5.31343e-06, No Iterations 2
DICPCG:  Solving for p, Initial residual = 0.0103892, Final residual = 0.000498365, No Iterations 52
time step continuity errors : sum local = 6.65505e-10, global = -2.36499e-13, cumulative = -3.98941e-10
DICPCG:  Solving for p, Initial residual = 0.00211333, Final residual = 9.28033e-07, No Iterations 208
time step continuity errors : sum local = 1.23392e-12, global = 1.37864e-14, cumulative = -3.98928e-10
ExecutionTime = 2.73 s  ClockTime = 3 s

Time = 1

Courant Number mean: 0.00376224 max: 0.0646737
smoothSolver:  Solving for Ux, Initial residual = 0.000828, Final residual = 5.04573e-06, No Iterations 2
smoothSolver:  Solving for Uy, Initial residual = 0.00250544, Final residual = 5.04135e-06, No Iterations 2
DICPCG:  Solving for p, Initial residual = 0.00975975, Final residual = 0.000474123, No Iterations 52
time step continuity errors : sum local = 6.26379e-10, global = -2.20576e-13, cumulative = -3.99148e-10
DICPCG:  Solving for p, Initial residual = 0.00199362, Final residual = 9.51441e-07, No Iterations 208
time step continuity errors : sum local = 1.25146e-12, global = 1.33696e-14, cumulative = -3.99135e-10
ExecutionTime = 3.04 s  ClockTime = 3 s

Time = 1.05

Courant Number mean: 0.00376149 max: 0.0640521
smoothSolver:  Solving for Ux, Initial residual = 0.000787585, Final residual = 4.708e-06, No Iterations 2
smoothSolver:  Solving for Uy, Initial residual = 0.00243286, Final residual = 4.78925e-06, No Iterations 2
DICPCG:  Solving for p, Initial residual = 0.0095706, Final residual = 0.000462646, No Iterations 51
time step continuity errors : sum local = 6.04582e-10, global = -1.98348e-13, cumulative = -3.99333e-10
DICPCG:  Solving for p, Initial residual = 0.00193147, Final residual = 9.0737e-07, No Iterations 208
time step continuity errors : sum local = 1.18024e-12, global = 1.23787e-14, cumulative = -3.99321e-10
ExecutionTime = 3.15 s  ClockTime = 3 s

Time = 1.1

Courant Number mean: 0.00376076 max: 0.0638755
smoothSolver:  Solving for Ux, Initial residual = 0.000751062, Final residual = 4.40793e-06, No Iterations 2
smoothSolver:  Solving for Uy, Initial residual = 0.00236586, Final residual = 4.55938e-06, No Iterations 2
DICPCG:  Solving for p, Initial residual = 0.0090627, Final residual = 0.000445049, No Iterations 51
time step continuity errors : sum local = 5.75136e-10, global = -1.74731e-13, cumulative = -3.99495e-10
DICPCG:  Solving for p, Initial residual = 0.00184839, Final residual = 8.98771e-07, No Iterations 208
time step continuity errors : sum local = 1.15595e-12, global = 1.15781e-14, cumulative = -3.99484e-10
ExecutionTime = 3.26 s  ClockTime = 3 s

Time = 1.15

Courant Number mean: 0.00376006 max: 0.0636852
smoothSolver:  Solving for Ux, Initial residual = 0.000717946, Final residual = 4.14012e-06, No Iterations 2
smoothSolver:  Solving for Uy, Initial residual = 0.00230387, Final residual = 4.34935e-06, No Iterations 2
DICPCG:  Solving for p, Initial residual = 0.00862957, Final residual = 0.000414186, No Iterations 51
time step continuity errors : sum local = 5.29416e-10, global = -1.63329e-13, cumulative = -3.99647e-10
DICPCG:  Solving for p, Initial residual = 0.00173771, Final residual = 9.86565e-07, No Iterations 206
time step continuity errors : sum local = 1.25528e-12, global = 1.32234e-14, cumulative = -3.99634e-10
ExecutionTime = 3.36 s  ClockTime = 3 s

Time = 1.2

Courant Number mean: 0.00375937 max: 0.0634833
smoothSolver:  Solving for Ux, Initial residual = 0.000687735, Final residual = 3.89998e-06, No Iterations 2
smoothSolver:  Solving for Uy, Initial residual = 0.00224593, Final residual = 4.15634e-06, No Iterations 2
DICPCG:  Solving for p, Initial residual = 0.00849972, Final residual = 0.00041663, No Iterations 50
time step continuity errors : sum local = 5.2693e-10, global = -1.45703e-13, cumulative = -3.9978e-10
DICPCG:  Solving for p, Initial residual = 0.00168247, Final residual = 9.79343e-07, No Iterations 206
time step continuity errors : sum local = 1.2331e-12, global = 1.16367e-14, cumulative = -3.99768e-10
ExecutionTime = 3.47 s  ClockTime = 4 s

Time = 1.25

Courant Number mean: 0.0037587 max: 0.0632717
smoothSolver:  Solving for Ux, Initial residual = 0.000660038, Final residual = 3.68421e-06, No Iterations 2
smoothSolver:  Solving for Uy, Initial residual = 0.00219153, Final residual = 3.97637e-06, No Iterations 2
DICPCG:  Solving for p, Initial residual = 0.0084216, Final residual = 0.000401316, No Iterations 50
time step continuity errors : sum local = 5.02059e-10, global = -1.29726e-13, cumulative = -3.99898e-10
DICPCG:  Solving for p, Initial residual = 0.0016566, Final residual = 9.69316e-07, No Iterations 206
time step continuity errors : sum local = 1.20664e-12, global = 1.10308e-14, cumulative = -3.99887e-10
ExecutionTime = 3.58 s  ClockTime = 4 s

Time = 1.3

Courant Number mean: 0.00375806 max: 0.0630519
smoothSolver:  Solving for Ux, Initial residual = 0.000634484, Final residual = 3.48826e-06, No Iterations 2
smoothSolver:  Solving for Uy, Initial residual = 0.0021408, Final residual = 3.81222e-06, No Iterations 2
DICPCG:  Solving for p, Initial residual = 0.00805843, Final residual = 0.000374313, No Iterations 50
time step continuity errors : sum local = 4.63053e-10, global = -1.20994e-13, cumulative = -4.00008e-10
DICPCG:  Solving for p, Initial residual = 0.0015501, Final residual = 9.28349e-07, No Iterations 206
time step continuity errors : sum local = 1.14285e-12, global = 1.01021e-14, cumulative = -3.99998e-10
ExecutionTime = 3.69 s  ClockTime = 4 s

Time = 1.35

Courant Number mean: 0.00375742 max: 0.0628254
smoothSolver:  Solving for Ux, Initial residual = 0.000610874, Final residual = 3.31075e-06, No Iterations 2
smoothSolver:  Solving for Uy, Initial residual = 0.00209273, Final residual = 3.6596e-06, No Iterations 2
DICPCG:  Solving for p, Initial residual = 0.0078571, Final residual = 0.000362093, No Iterations 50
time step continuity errors : sum local = 4.43072e-10, global = -1.15757e-13, cumulative = -4.00113e-10
DICPCG:  Solving for p, Initial residual = 0.00149509, Final residual = 9.93587e-07, No Iterations 205
time step continuity errors : sum local = 1.21007e-12, global = 1.10721e-14, cumulative = -4.00102e-10
ExecutionTime = 3.81 s  ClockTime = 4 s

Time = 1.4

Courant Number mean: 0.00375681 max: 0.0625935
smoothSolver:  Solving for Ux, Initial residual = 0.000588961, Final residual = 3.14909e-06, No Iterations 2
smoothSolver:  Solving for Uy, Initial residual = 0.00204704, Final residual = 3.51591e-06, No Iterations 2
DICPCG:  Solving for p, Initial residual = 0.00769697, Final residual = 0.000384511, No Iterations 49
time step continuity errors : sum local = 4.65577e-10, global = -9.92249e-14, cumulative = -4.00201e-10
DICPCG:  Solving for p, Initial residual = 0.00149055, Final residual = 9.37865e-07, No Iterations 205
time step continuity errors : sum local = 1.13044e-12, global = 1.00686e-14, cumulative = -4.00191e-10
ExecutionTime = 3.92 s  ClockTime = 4 s

Time = 1.45

Courant Number mean: 0.0037562 max: 0.0623571
smoothSolver:  Solving for Ux, Initial residual = 0.000568559, Final residual = 3.00135e-06, No Iterations 2
smoothSolver:  Solving for Uy, Initial residual = 0.00200337, Final residual = 3.38147e-06, No Iterations 2
DICPCG:  Solving for p, Initial residual = 0.00756255, Final residual = 0.000370388, No Iterations 49
time step continuity errors : sum local = 4.43778e-10, global = -8.76446e-14, cumulative = -4.00279e-10
DICPCG:  Solving for p, Initial residual = 0.00146131, Final residual = 9.37019e-07, No Iterations 205
time step continuity errors : sum local = 1.11736e-12, global = 8.48212e-15, cumulative = -4.00271e-10
ExecutionTime = 4.03 s  ClockTime = 4 s

Time = 1.5

Courant Number mean: 0.00375561 max: 0.0621173
smoothSolver:  Solving for Ux, Initial residual = 0.000549463, Final residual = 2.86509e-06, No Iterations 2
smoothSolver:  Solving for Uy, Initial residual = 0.00196205, Final residual = 3.25622e-06, No Iterations 2
DICPCG:  Solving for p, Initial residual = 0.00732172, Final residual = 0.000356037, No Iterations 49
time step continuity errors : sum local = 4.2212e-10, global = -8.30009e-14, cumulative = -4.00354e-10
DICPCG:  Solving for p, Initial residual = 0.00139991, Final residual = 8.93645e-07, No Iterations 205
time step continuity errors : sum local = 1.05465e-12, global = 8.18366e-15, cumulative = -4.00345e-10
ExecutionTime = 4.32 s  ClockTime = 4 s

Time = 1.55

Courant Number mean: 0.00375503 max: 0.0618749
smoothSolver:  Solving for Ux, Initial residual = 0.000531594, Final residual = 2.7397e-06, No Iterations 2
smoothSolver:  Solving for Uy, Initial residual = 0.00192251, Final residual = 3.13923e-06, No Iterations 2
DICPCG:  Solving for p, Initial residual = 0.00724982, Final residual = 0.000358216, No Iterations 48
time step continuity errors : sum local = 4.20423e-10, global = -6.69862e-14, cumulative = -4.00412e-10
DICPCG:  Solving for p, Initial residual = 0.00138545, Final residual = 9.44991e-07, No Iterations 204
time step continuity errors : sum local = 1.10423e-12, global = 7.75279e-15, cumulative = -4.00405e-10
ExecutionTime = 4.43 s  ClockTime = 5 s

Time = 1.6

Courant Number mean: 0.00375447 max: 0.0616305
smoothSolver:  Solving for Ux, Initial residual = 0.000514822, Final residual = 2.62378e-06, No Iterations 2
smoothSolver:  Solving for Uy, Initial residual = 0.00188461, Final residual = 3.03051e-06, No Iterations 2
DICPCG:  Solving for p, Initial residual = 0.00724294, Final residual = 0.00035616, No Iterations 48
time step continuity errors : sum local = 4.13795e-10, global = -5.76897e-14, cumulative = -4.00462e-10
DICPCG:  Solving for p, Initial residual = 0.00138176, Final residual = 8.98165e-07, No Iterations 205
time step continuity errors : sum local = 1.03868e-12, global = 6.32775e-15, cumulative = -4.00456e-10
ExecutionTime = 4.55 s  ClockTime = 5 s

Time = 1.65

Courant Number mean: 0.00375391 max: 0.0613848
smoothSolver:  Solving for Ux, Initial residual = 0.000499014, Final residual = 2.5161e-06, No Iterations 2
smoothSolver:  Solving for Uy, Initial residual = 0.00184832, Final residual = 2.92954e-06, No Iterations 2
DICPCG:  Solving for p, Initial residual = 0.00706998, Final residual = 0.000334935, No Iterations 48
time step continuity errors : sum local = 3.85228e-10, global = -5.17268e-14, cumulative = -4.00508e-10
DICPCG:  Solving for p, Initial residual = 0.00132675, Final residual = 9.29896e-07, No Iterations 204
time step continuity errors : sum local = 1.06484e-12, global = 6.3455e-15, cumulative = -4.00501e-10
ExecutionTime = 4.65 s  ClockTime = 5 s

Time = 1.7

Courant Number mean: 0.00375337 max: 0.0611383
smoothSolver:  Solving for Ux, Initial residual = 0.000484088, Final residual = 2.41585e-06, No Iterations 2
smoothSolver:  Solving for Uy, Initial residual = 0.00181363, Final residual = 2.83358e-06, No Iterations 2
DICPCG:  Solving for p, Initial residual = 0.00702096, Final residual = 0.000350127, No Iterations 47
time step continuity errors : sum local = 3.9872e-10, global = -4.07483e-14, cumulative = -4.00542e-10
DICPCG:  Solving for p, Initial residual = 0.00133296, Final residual = 8.78132e-07, No Iterations 204
time step continuity errors : sum local = 9.95479e-13, global = 6.19545e-15, cumulative = -4.00536e-10
ExecutionTime = 4.76 s  ClockTime = 5 s

Time = 1.75

Courant Number mean: 0.00375284 max: 0.0610339
smoothSolver:  Solving for Ux, Initial residual = 0.000469983, Final residual = 2.32294e-06, No Iterations 2
smoothSolver:  Solving for Uy, Initial residual = 0.00177999, Final residual = 2.74074e-06, No Iterations 2
DICPCG:  Solving for p, Initial residual = 0.00688776, Final residual = 0.000342475, No Iterations 47
time step continuity errors : sum local = 3.8615e-10, global = -3.33621e-14, cumulative = -4.00569e-10
DICPCG:  Solving for p, Initial residual = 0.00129552, Final residual = 8.80842e-07, No Iterations 204
time step continuity errors : sum local = 9.88842e-13, global = 4.57421e-15, cumulative = -4.00565e-10
ExecutionTime = 4.86 s  ClockTime = 5 s

Time = 1.8

Courant Number mean: 0.00375231 max: 0.0610503
smoothSolver:  Solving for Ux, Initial residual = 0.000456592, Final residual = 2.23573e-06, No Iterations 2
smoothSolver:  Solving for Uy, Initial residual = 0.00174788, Final residual = 2.65484e-06, No Iterations 2
DICPCG:  Solving for p, Initial residual = 0.0067913, Final residual = 0.000330391, No Iterations 47
time step continuity errors : sum local = 3.68854e-10, global = -3.04057e-14, cumulative = -4.00595e-10
DICPCG:  Solving for p, Initial residual = 0.00126325, Final residual = 9.8845e-07, No Iterations 203
time step continuity errors : sum local = 1.09851e-12, global = 4.9018e-15, cumulative = -4.0059e-10
ExecutionTime = 4.97 s  ClockTime = 5 s

Time = 1.85

Courant Number mean: 0.0037518 max: 0.0610598
smoothSolver:  Solving for Ux, Initial residual = 0.000443874, Final residual = 2.15404e-06, No Iterations 2
smoothSolver:  Solving for Uy, Initial residual = 0.00171697, Final residual = 2.57324e-06, No Iterations 2
DICPCG:  Solving for p, Initial residual = 0.00648789, Final residual = 0.000320788, No Iterations 47
time step continuity errors : sum local = 3.54643e-10, global = -3.07978e-14, cumulative = -4.00621e-10
DICPCG:  Solving for p, Initial residual = 0.00121149, Final residual = 9.70299e-07, No Iterations 203
time step continuity errors : sum local = 1.06813e-12, global = 3.87071e-15, cumulative = -4.00617e-10
ExecutionTime = 5.09 s  ClockTime = 5 s

Time = 1.9

Courant Number mean: 0.00375129 max: 0.0610627
smoothSolver:  Solving for Ux, Initial residual = 0.000431805, Final residual = 2.07749e-06, No Iterations 2
smoothSolver:  Solving for Uy, Initial residual = 0.0016871, Final residual = 2.49615e-06, No Iterations 2
DICPCG:  Solving for p, Initial residual = 0.00639859, Final residual = 0.000314524, No Iterations 47
time step continuity errors : sum local = 3.44476e-10, global = -2.90041e-14, cumulative = -4.00646e-10
DICPCG:  Solving for p, Initial residual = 0.00119057, Final residual = 9.50628e-07, No Iterations 203
time step continuity errors : sum local = 1.03681e-12, global = 3.78841e-15, cumulative = -4.00642e-10
ExecutionTime = 5.2 s  ClockTime = 5 s

Time = 1.95

Courant Number mean: 0.0037508 max: 0.0610593
smoothSolver:  Solving for Ux, Initial residual = 0.000420346, Final residual = 2.00555e-06, No Iterations 2
smoothSolver:  Solving for Uy, Initial residual = 0.00165822, Final residual = 2.42262e-06, No Iterations 2
DICPCG:  Solving for p, Initial residual = 0.00637656, Final residual = 0.000308537, No Iterations 47
time step continuity errors : sum local = 3.34857e-10, global = -2.88143e-14, cumulative = -4.00671e-10
DICPCG:  Solving for p, Initial residual = 0.00117611, Final residual = 9.15454e-07, No Iterations 203
time step continuity errors : sum local = 9.89571e-13, global = 3.09649e-15, cumulative = -4.00668e-10
ExecutionTime = 5.3 s  ClockTime = 5 s

Time = 2

Courant Number mean: 0.00375031 max: 0.0610499
smoothSolver:  Solving for Ux, Initial residual = 0.000409444, Final residual = 1.93783e-06, No Iterations 2
smoothSolver:  Solving for Uy, Initial residual = 0.0016303, Final residual = 2.35268e-06, No Iterations 2
DICPCG:  Solving for p, Initial residual = 0.00645404, Final residual = 0.000309969, No Iterations 47
time step continuity errors : sum local = 3.33433e-10, global = -3.11929e-14, cumulative = -4.00699e-10
DICPCG:  Solving for p, Initial residual = 0.0011756, Final residual = 9.28406e-07, No Iterations 203
time step continuity errors : sum local = 9.94712e-13, global = 2.13553e-15, cumulative = -4.00697e-10
ExecutionTime = 5.6 s  ClockTime = 6 s

Time = 2.05

Courant Number mean: 0.00374983 max: 0.061035
smoothSolver:  Solving for Ux, Initial residual = 0.000399039, Final residual = 1.87404e-06, No Iterations 2
smoothSolver:  Solving for Uy, Initial residual = 0.00160322, Final residual = 2.28652e-06, No Iterations 2
DICPCG:  Solving for p, Initial residual = 0.00641497, Final residual = 0.000311417, No Iterations 47
time step continuity errors : sum local = 3.3196e-10, global = -2.25339e-14, cumulative = -4.0072e-10
DICPCG:  Solving for p, Initial residual = 0.00116671, Final residual = 9.62481e-07, No Iterations 203
time step continuity errors : sum local = 1.02167e-12, global = 3.51058e-15, cumulative = -4.00716e-10
ExecutionTime = 5.71 s  ClockTime = 6 s

Time = 2.1

Courant Number mean: 0.00374936 max: 0.0610147
smoothSolver:  Solving for Ux, Initial residual = 0.00038905, Final residual = 1.81355e-06, No Iterations 2
smoothSolver:  Solving for Uy, Initial residual = 0.00157735, Final residual = 2.22362e-06, No Iterations 2
DICPCG:  Solving for p, Initial residual = 0.00609981, Final residual = 0.000296433, No Iterations 47
time step continuity errors : sum local = 3.13133e-10, global = -5.49279e-15, cumulative = -4.00722e-10
DICPCG:  Solving for p, Initial residual = 0.00111938, Final residual = 9.25735e-07, No Iterations 203
time step continuity errors : sum local = 9.73939e-13, global = 1.93633e-15, cumulative = -4.0072e-10
ExecutionTime = 5.81 s  ClockTime = 6 s

Time = 2.15

Courant Number mean: 0.0037489 max: 0.0609895
smoothSolver:  Solving for Ux, Initial residual = 0.00037954, Final residual = 1.75652e-06, No Iterations 2
smoothSolver:  Solving for Uy, Initial residual = 0.0015521, Final residual = 2.16338e-06, No Iterations 2
DICPCG:  Solving for p, Initial residual = 0.0059197, Final residual = 0.000283901, No Iterations 47
time step continuity errors : sum local = 2.97259e-10, global = -2.26852e-14, cumulative = -4.00742e-10
DICPCG:  Solving for p, Initial residual = 0.00108999, Final residual = 8.82995e-07, No Iterations 203
time step continuity errors : sum local = 9.20927e-13, global = 1.61934e-15, cumulative = -4.00741e-10
ExecutionTime = 5.92 s  ClockTime = 6 s

Time = 2.2

Courant Number mean: 0.00374844 max: 0.0609595
smoothSolver:  Solving for Ux, Initial residual = 0.000370413, Final residual = 1.70248e-06, No Iterations 2
smoothSolver:  Solving for Uy, Initial residual = 0.00152752, Final residual = 2.10574e-06, No Iterations 2
DICPCG:  Solving for p, Initial residual = 0.00584316, Final residual = 0.000278209, No Iterations 47
time step continuity errors : sum local = 2.88793e-10, global = -2.13858e-14, cumulative = -4.00762e-10
DICPCG:  Solving for p, Initial residual = 0.00107261, Final residual = 9.84294e-07, No Iterations 202
time step continuity errors : sum local = 1.01777e-12, global = -1.85996e-16, cumulative = -4.00762e-10
ExecutionTime = 6.02 s  ClockTime = 6 s

Time = 2.25

Courant Number mean: 0.00374799 max: 0.060925
smoothSolver:  Solving for Ux, Initial residual = 0.000361663, Final residual = 1.65116e-06, No Iterations 2
smoothSolver:  Solving for Uy, Initial residual = 0.00150358, Final residual = 2.05058e-06, No Iterations 2
DICPCG:  Solving for p, Initial residual = 0.00583391, Final residual = 0.000275724, No Iterations 47
time step continuity errors : sum local = 2.83788e-10, global = -2.10375e-14, cumulative = -4.00783e-10
DICPCG:  Solving for p, Initial residual = 0.00106408, Final residual = 9.9114e-07, No Iterations 202
time step continuity errors : sum local = 1.01627e-12, global = 9.40857e-18, cumulative = -4.00783e-10
ExecutionTime = 6.14 s  ClockTime = 6 s

Time = 2.3

Courant Number mean: 0.00374755 max: 0.0608864
smoothSolver:  Solving for Ux, Initial residual = 0.000353265, Final residual = 1.60231e-06, No Iterations 2
smoothSolver:  Solving for Uy, Initial residual = 0.00148038, Final residual = 1.99849e-06, No Iterations 2
DICPCG:  Solving for p, Initial residual = 0.00572399, Final residual = 0.000270674, No Iterations 47
time step continuity errors : sum local = 2.76279e-10, global = -1.98256e-14, cumulative = -4.00803e-10
DICPCG:  Solving for p, Initial residual = 0.00104422, Final residual = 9.65706e-07, No Iterations 202
time step continuity errors : sum local = 9.82016e-13, global = -5.60851e-16, cumulative = -4.00804e-10
ExecutionTime = 6.24 s  ClockTime = 6 s

Time = 2.35

Courant Number mean: 0.00374711 max: 0.0608437
smoothSolver:  Solving for Ux, Initial residual = 0.000345212, Final residual = 1.5559e-06, No Iterations 2
smoothSolver:  Solving for Uy, Initial residual = 0.00145772, Final residual = 1.94837e-06, No Iterations 2
DICPCG:  Solving for p, Initial residual = 0.00571705, Final residual = 0.000266576, No Iterations 47
time step continuity errors : sum local = 2.69854e-10, global = -1.89293e-14, cumulative = -4.00823e-10
DICPCG:  Solving for p, Initial residual = 0.00103533, Final residual = 9.5811e-07, No Iterations 202
time step continuity errors : sum local = 9.66275e-13, global = -9.27543e-16, cumulative = -4.00824e-10
ExecutionTime = 6.35 s  ClockTime = 7 s

Time = 2.4

Courant Number mean: 0.00374668 max: 0.0607973
smoothSolver:  Solving for Ux, Initial residual = 0.000337477, Final residual = 1.5117e-06, No Iterations 2
smoothSolver:  Solving for Uy, Initial residual = 0.00143569, Final residual = 1.90068e-06, No Iterations 2
DICPCG:  Solving for p, Initial residual = 0.00564266, Final residual = 0.000261409, No Iterations 47
time step continuity errors : sum local = 2.62443e-10, global = -1.78097e-14, cumulative = -4.00841e-10
DICPCG:  Solving for p, Initial residual = 0.00101634, Final residual = 9.42398e-07, No Iterations 202
time step continuity errors : sum local = 9.42578e-13, global = -1.26189e-15, cumulative = -4.00843e-10
ExecutionTime = 6.46 s  ClockTime = 7 s

Time = 2.45

Courant Number mean: 0.00374626 max: 0.0607474
smoothSolver:  Solving for Ux, Initial residual = 0.000330038, Final residual = 1.4694e-06, No Iterations 2
smoothSolver:  Solving for Uy, Initial residual = 0.00141438, Final residual = 1.85516e-06, No Iterations 2
DICPCG:  Solving for p, Initial residual = 0.00553117, Final residual = 0.000257065, No Iterations 47
time step continuity errors : sum local = 2.55997e-10, global = -1.6868e-14, cumulative = -4.0086e-10
DICPCG:  Solving for p, Initial residual = 0.000997967, Final residual = 9.20669e-07, No Iterations 202
time step continuity errors : sum local = 9.13553e-13, global = -1.35384e-15, cumulative = -4.00861e-10
ExecutionTime = 6.57 s  ClockTime = 7 s

Time = 2.5

Courant Number mean: 0.00374584 max: 0.0606941
smoothSolver:  Solving for Ux, Initial residual = 0.000322877, Final residual = 1.42907e-06, No Iterations 2
smoothSolver:  Solving for Uy, Initial residual = 0.00139353, Final residual = 1.8119e-06, No Iterations 2
DICPCG:  Solving for p, Initial residual = 0.00563602, Final residual = 0.000279394, No Iterations 46
time step continuity errors : sum local = 2.76092e-10, global = -1.10954e-14, cumulative = -4.00872e-10
DICPCG:  Solving for p, Initial residual = 0.00101149, Final residual = 9.07614e-07, No Iterations 202
time step continuity errors : sum local = 8.93883e-13, global = -1.46722e-15, cumulative = -4.00873e-10
ExecutionTime = 6.86 s  ClockTime = 7 s

Time = 2.55

Courant Number mean: 0.00374543 max: 0.0606377
smoothSolver:  Solving for Ux, Initial residual = 0.000315967, Final residual = 1.39044e-06, No Iterations 2
smoothSolver:  Solving for Uy, Initial residual = 0.00137323, Final residual = 1.77106e-06, No Iterations 2
DICPCG:  Solving for p, Initial residual = 0.00566531, Final residual = 0.000282294, No Iterations 45
time step continuity errors : sum local = 2.7686e-10, global = -4.67642e-15, cumulative = -4.00878e-10
DICPCG:  Solving for p, Initial residual = 0.00102998, Final residual = 9.48076e-07, No Iterations 183
time step continuity errors : sum local = 9.26634e-13, global = -2.63422e-14, cumulative = -4.00905e-10
ExecutionTime = 6.96 s  ClockTime = 7 s

Time = 2.6

Courant Number mean: 0.00374502 max: 0.0605784
smoothSolver:  Solving for Ux, Initial residual = 0.000309341, Final residual = 9.97169e-06, No Iterations 1
smoothSolver:  Solving for Uy, Initial residual = 0.0013532, Final residual = 1.73029e-06, No Iterations 2
DICPCG:  Solving for p, Initial residual = 0.00701199, Final residual = 0.000349985, No Iterations 57
time step continuity errors : sum local = 3.40451e-10, global = -8.06781e-14, cumulative = -4.00985e-10
DICPCG:  Solving for p, Initial residual = 0.00375843, Final residual = 9.74291e-07, No Iterations 211
time step continuity errors : sum local = 9.44084e-13, global = -2.22737e-14, cumulative = -4.01007e-10
ExecutionTime = 7.07 s  ClockTime = 7 s

Time = 2.65

Courant Number mean: 0.00374463 max: 0.0605155
smoothSolver:  Solving for Ux, Initial residual = 0.000301201, Final residual = 9.77759e-06, No Iterations 1
smoothSolver:  Solving for Uy, Initial residual = 0.0013224, Final residual = 1.69253e-06, No Iterations 2
DICPCG:  Solving for p, Initial residual = 0.00691571, Final residual = 0.000337605, No Iterations 54
time step continuity errors : sum local = 3.25529e-10, global = -2.69033e-13, cumulative = -4.01276e-10
DICPCG:  Solving for p, Initial residual = 0.00365658, Final residual = 9.39543e-07, No Iterations 211
time step continuity errors : sum local = 9.02629e-13, global = -2.22266e-14, cumulative = -4.01299e-10
ExecutionTime = 7.19 s  ClockTime = 7 s

Time = 2.7

Courant Number mean: 0.00374424 max: 0.0604501
smoothSolver:  Solving for Ux, Initial residual = 0.000295283, Final residual = 9.5583e-06, No Iterations 1
smoothSolver:  Solving for Uy, Initial residual = 0.00130455, Final residual = 1.65722e-06, No Iterations 2
DICPCG:  Solving for p, Initial residual = 0.00644883, Final residual = 0.000307829, No Iterations 55
time step continuity errors : sum local = 2.94542e-10, global = -2.32784e-13, cumulative = -4.01532e-10
DICPCG:  Solving for p, Initial residual = 0.00356048, Final residual = 9.40259e-07, No Iterations 211
time step continuity errors : sum local = 8.96554e-13, global = -2.23511e-14, cumulative = -4.01554e-10
ExecutionTime = 7.31 s  ClockTime = 7 s

Time = 2.75

Courant Number mean: 0.00374386 max: 0.0603823
smoothSolver:  Solving for Ux, Initial residual = 0.000289482, Final residual = 9.34388e-06, No Iterations 1
smoothSolver:  Solving for Uy, Initial residual = 0.00128686, Final residual = 1.62251e-06, No Iterations 2
DICPCG:  Solving for p, Initial residual = 0.00667591, Final residual = 0.00031444, No Iterations 55
time step continuity errors : sum local = 2.98535e-10, global = -2.27898e-13, cumulative = -4.01782e-10
DICPCG:  Solving for p, Initial residual = 0.00358132, Final residual = 9.26715e-07, No Iterations 211
time step continuity errors : sum local = 8.76571e-13, global = -2.14631e-14, cumulative = -4.01803e-10
ExecutionTime = 7.42 s  ClockTime = 8 s

Time = 2.8

Courant Number mean: 0.00374348 max: 0.0603123
smoothSolver:  Solving for Ux, Initial residual = 0.000283854, Final residual = 9.13617e-06, No Iterations 1
smoothSolver:  Solving for Uy, Initial residual = 0.00126962, Final residual = 1.58967e-06, No Iterations 2
DICPCG:  Solving for p, Initial residual = 0.00646379, Final residual = 0.000302764, No Iterations 55
time step continuity errors : sum local = 2.85203e-10, global = -2.25885e-13, cumulative = -4.02029e-10
DICPCG:  Solving for p, Initial residual = 0.00351826, Final residual = 9.45639e-07, No Iterations 211
time step continuity errors : sum local = 8.87606e-13, global = -2.19171e-14, cumulative = -4.02051e-10
ExecutionTime = 7.53 s  ClockTime = 8 s

Time = 2.85

Courant Number mean: 0.00374311 max: 0.0602403
smoothSolver:  Solving for Ux, Initial residual = 0.00027842, Final residual = 8.93607e-06, No Iterations 1
smoothSolver:  Solving for Uy, Initial residual = 0.00125264, Final residual = 1.55657e-06, No Iterations 2
DICPCG:  Solving for p, Initial residual = 0.00631748, Final residual = 0.000297669, No Iterations 55
time step continuity errors : sum local = 2.78304e-10, global = -2.26518e-13, cumulative = -4.02278e-10
DICPCG:  Solving for p, Initial residual = 0.00348044, Final residual = 9.29581e-07, No Iterations 211
time step continuity errors : sum local = 8.66194e-13, global = -2.1188e-14, cumulative = -4.02299e-10
ExecutionTime = 7.64 s  ClockTime = 8 s

Time = 2.9

Courant Number mean: 0.00374274 max: 0.0601663
smoothSolver:  Solving for Ux, Initial residual = 0.00027315, Final residual = 8.74208e-06, No Iterations 1
smoothSolver:  Solving for Uy, Initial residual = 0.00123591, Final residual = 1.52554e-06, No Iterations 2
DICPCG:  Solving for p, Initial residual = 0.00611773, Final residual = 0.000297696, No Iterations 55
time step continuity errors : sum local = 2.76302e-10, global = -2.22483e-13, cumulative = -4.02521e-10
DICPCG:  Solving for p, Initial residual = 0.00343989, Final residual = 9.28122e-07, No Iterations 211
time step continuity errors : sum local = 8.58509e-13, global = -2.09019e-14, cumulative = -4.02542e-10
ExecutionTime = 7.75 s  ClockTime = 8 s

Time = 2.95

Courant Number mean: 0.00374238 max: 0.0600904
smoothSolver:  Solving for Ux, Initial residual = 0.000268049, Final residual = 8.55473e-06, No Iterations 1
smoothSolver:  Solving for Uy, Initial residual = 0.00121962, Final residual = 1.49542e-06, No Iterations 2
DICPCG:  Solving for p, Initial residual = 0.00601928, Final residual = 0.000293355, No Iterations 55
time step continuity errors : sum local = 2.70314e-10, global = -2.19768e-13, cumulative = -4.02762e-10
DICPCG:  Solving for p, Initial residual = 0.00340525, Final residual = 9.22705e-07, No Iterations 211
time step continuity errors : sum local = 8.47458e-13, global = -2.05464e-14, cumulative = -4.02782e-10
ExecutionTime = 7.86 s  ClockTime = 8 s

Time = 3

Courant Number mean: 0.00374202 max: 0.0600128
smoothSolver:  Solving for Ux, Initial residual = 0.000263096, Final residual = 8.37302e-06, No Iterations 1
smoothSolver:  Solving for Uy, Initial residual = 0.0012037, Final residual = 1.4666e-06, No Iterations 2
DICPCG:  Solving for p, Initial residual = 0.0059689, Final residual = 0.000292313, No Iterations 55
time step continuity errors : sum local = 2.67465e-10, global = -2.1664e-13, cumulative = -4.02999e-10
DICPCG:  Solving for p, Initial residual = 0.00337655, Final residual = 9.18565e-07, No Iterations 211
time step continuity errors : sum local = 8.37791e-13, global = -2.01819e-14, cumulative = -4.03019e-10
ExecutionTime = 8.17 s  ClockTime = 8 s

Time = 3.05

Courant Number mean: 0.00374166 max: 0.0599336
smoothSolver:  Solving for Ux, Initial residual = 0.000258287, Final residual = 8.19725e-06, No Iterations 1
smoothSolver:  Solving for Uy, Initial residual = 0.0011881, Final residual = 1.43874e-06, No Iterations 2
DICPCG:  Solving for p, Initial residual = 0.005877, Final residual = 0.000287385, No Iterations 55
time step continuity errors : sum local = 2.6113e-10, global = -2.13505e-13, cumulative = -4.03233e-10
DICPCG:  Solving for p, Initial residual = 0.00334402, Final residual = 9.10889e-07, No Iterations 211
time step continuity errors : sum local = 8.25024e-13, global = -1.97539e-14, cumulative = -4.03253e-10
ExecutionTime = 8.28 s  ClockTime = 8 s

Time = 3.1

Courant Number mean: 0.00374131 max: 0.0598529
smoothSolver:  Solving for Ux, Initial residual = 0.000253624, Final residual = 8.02737e-06, No Iterations 1
smoothSolver:  Solving for Uy, Initial residual = 0.00117291, Final residual = 1.41191e-06, No Iterations 2
DICPCG:  Solving for p, Initial residual = 0.00588827, Final residual = 0.000290599, No Iterations 55
time step continuity errors : sum local = 2.62218e-10, global = -2.09633e-13, cumulative = -4.03462e-10
DICPCG:  Solving for p, Initial residual = 0.00332433, Final residual = 9.04938e-07, No Iterations 211
time step continuity errors : sum local = 8.13938e-13, global = -1.93703e-14, cumulative = -4.03482e-10
ExecutionTime = 8.39 s  ClockTime = 9 s

Time = 3.15

Courant Number mean: 0.00374097 max: 0.0597708
smoothSolver:  Solving for Ux, Initial residual = 0.000249102, Final residual = 7.86285e-06, No Iterations 1
smoothSolver:  Solving for Uy, Initial residual = 0.00115815, Final residual = 1.38624e-06, No Iterations 2
DICPCG:  Solving for p, Initial residual = 0.00574969, Final residual = 0.00028281, No Iterations 55
time step continuity errors : sum local = 2.53437e-10, global = -2.06386e-13, cumulative = -4.03688e-10
DICPCG:  Solving for p, Initial residual = 0.00328555, Final residual = 9.00226e-07, No Iterations 211
time step continuity errors : sum local = 8.04188e-13, global = -1.90558e-14, cumulative = -4.03707e-10
ExecutionTime = 8.5 s  ClockTime = 9 s

Time = 3.2

Courant Number mean: 0.00374062 max: 0.0596874
smoothSolver:  Solving for Ux, Initial residual = 0.000244719, Final residual = 7.70403e-06, No Iterations 1
smoothSolver:  Solving for Uy, Initial residual = 0.0011436, Final residual = 1.36122e-06, No Iterations 2
DICPCG:  Solving for p, Initial residual = 0.00575203, Final residual = 0.000280848, No Iterations 55
time step continuity errors : sum local = 2.49985e-10, global = -2.04339e-13, cumulative = -4.03911e-10
DICPCG:  Solving for p, Initial residual = 0.00325992, Final residual = 8.96947e-07, No Iterations 211
time step continuity errors : sum local = 7.95939e-13, global = -1.87421e-14, cumulative = -4.0393e-10
ExecutionTime = 8.61 s  ClockTime = 9 s

Time = 3.25

Courant Number mean: 0.00374028 max: 0.0596027
smoothSolver:  Solving for Ux, Initial residual = 0.000240465, Final residual = 7.55014e-06, No Iterations 1
smoothSolver:  Solving for Uy, Initial residual = 0.00112933, Final residual = 1.33704e-06, No Iterations 2
DICPCG:  Solving for p, Initial residual = 0.00570615, Final residual = 0.000278901, No Iterations 55
time step continuity errors : sum local = 2.46605e-10, global = -2.01332e-13, cumulative = -4.04131e-10
DICPCG:  Solving for p, Initial residual = 0.00323306, Final residual = 8.84784e-07, No Iterations 211
time step continuity errors : sum local = 7.79939e-13, global = -1.8224e-14, cumulative = -4.0415e-10
ExecutionTime = 8.72 s  ClockTime = 9 s

Time = 3.3

Courant Number mean: 0.00373995 max: 0.0595168
smoothSolver:  Solving for Ux, Initial residual = 0.000236326, Final residual = 7.40046e-06, No Iterations 1
smoothSolver:  Solving for Uy, Initial residual = 0.00111546, Final residual = 1.31356e-06, No Iterations 2
DICPCG:  Solving for p, Initial residual = 0.00556518, Final residual = 0.000274292, No Iterations 55
time step continuity errors : sum local = 2.40949e-10, global = -1.97708e-13, cumulative = -4.04347e-10
DICPCG:  Solving for p, Initial residual = 0.0031978, Final residual = 8.79562e-07, No Iterations 211
time step continuity errors : sum local = 7.70354e-13, global = -1.7963e-14, cumulative = -4.04365e-10
ExecutionTime = 8.83 s  ClockTime = 9 s

Time = 3.35

Courant Number mean: 0.00373962 max: 0.0594299
smoothSolver:  Solving for Ux, Initial residual = 0.000232309, Final residual = 7.25572e-06, No Iterations 1
smoothSolver:  Solving for Uy, Initial residual = 0.00110179, Final residual = 1.29085e-06, No Iterations 2
DICPCG:  Solving for p, Initial residual = 0.00564973, Final residual = 0.000273555, No Iterations 55
time step continuity errors : sum local = 2.38758e-10, global = -1.94874e-13, cumulative = -4.0456e-10
DICPCG:  Solving for p, Initial residual = 0.00318608, Final residual = 9.90323e-07, No Iterations 210
time step continuity errors : sum local = 8.61787e-13, global = -1.95337e-14, cumulative = -4.0458e-10
ExecutionTime = 8.94 s  ClockTime = 9 s

Time = 3.4

Courant Number mean: 0.00373929 max: 0.059342
smoothSolver:  Solving for Ux, Initial residual = 0.000228408, Final residual = 7.1158e-06, No Iterations 1
smoothSolver:  Solving for Uy, Initial residual = 0.00108833, Final residual = 1.26916e-06, No Iterations 2
DICPCG:  Solving for p, Initial residual = 0.00552414, Final residual = 0.000271605, No Iterations 55
time step continuity errors : sum local = 2.35559e-10, global = -1.93192e-13, cumulative = -4.04773e-10
DICPCG:  Solving for p, Initial residual = 0.00315265, Final residual = 9.95693e-07, No Iterations 210
time step continuity errors : sum local = 8.61088e-13, global = -1.89544e-14, cumulative = -4.04792e-10
ExecutionTime = 9.05 s  ClockTime = 9 s

Time = 3.45

Courant Number mean: 0.00373897 max: 0.0592531
smoothSolver:  Solving for Ux, Initial residual = 0.000224614, Final residual = 6.97977e-06, No Iterations 1
smoothSolver:  Solving for Uy, Initial residual = 0.00107519, Final residual = 1.24712e-06, No Iterations 2
DICPCG:  Solving for p, Initial residual = 0.00561028, Final residual = 0.000273311, No Iterations 55
time step continuity errors : sum local = 2.35517e-10, global = -1.89479e-13, cumulative = -4.04981e-10
DICPCG:  Solving for p, Initial residual = 0.00312747, Final residual = 8.75232e-07, No Iterations 211
time step continuity errors : sum local = 7.5189e-13, global = -1.679e-14, cumulative = -4.04998e-10
ExecutionTime = 9.16 s  ClockTime = 9 s

Time = 3.5

Courant Number mean: 0.00373865 max: 0.0591633
smoothSolver:  Solving for Ux, Initial residual = 0.000220923, Final residual = 6.84715e-06, No Iterations 1
smoothSolver:  Solving for Uy, Initial residual = 0.00106241, Final residual = 1.22612e-06, No Iterations 2
DICPCG:  Solving for p, Initial residual = 0.00539342, Final residual = 0.000265423, No Iterations 55
time step continuity errors : sum local = 2.2724e-10, global = -1.86799e-13, cumulative = -4.05185e-10
DICPCG:  Solving for p, Initial residual = 0.00308623, Final residual = 9.95358e-07, No Iterations 210
time step continuity errors : sum local = 8.4968e-13, global = -1.83248e-14, cumulative = -4.05203e-10
ExecutionTime = 9.45 s  ClockTime = 10 s

Time = 3.55

Courant Number mean: 0.00373833 max: 0.0590728
smoothSolver:  Solving for Ux, Initial residual = 0.000217332, Final residual = 6.71838e-06, No Iterations 1
smoothSolver:  Solving for Uy, Initial residual = 0.00104985, Final residual = 1.2064e-06, No Iterations 2
DICPCG:  Solving for p, Initial residual = 0.00535591, Final residual = 0.00026511, No Iterations 55
time step continuity errors : sum local = 2.25553e-10, global = -1.8423e-13, cumulative = -4.05387e-10
DICPCG:  Solving for p, Initial residual = 0.00306924, Final residual = 9.97808e-07, No Iterations 210
time step continuity errors : sum local = 8.46503e-13, global = -1.79726e-14, cumulative = -4.05405e-10
ExecutionTime = 9.56 s  ClockTime = 10 s

Time = 3.6

Courant Number mean: 0.00373802 max: 0.0589815
smoothSolver:  Solving for Ux, Initial residual = 0.000213843, Final residual = 6.59381e-06, No Iterations 1
smoothSolver:  Solving for Uy, Initial residual = 0.00103746, Final residual = 1.18704e-06, No Iterations 2
DICPCG:  Solving for p, Initial residual = 0.00524837, Final residual = 0.000259945, No Iterations 55
time step continuity errors : sum local = 2.19807e-10, global = -1.8242e-13, cumulative = -4.05588e-10
DICPCG:  Solving for p, Initial residual = 0.0030364, Final residual = 9.69037e-07, No Iterations 210
time step continuity errors : sum local = 8.17133e-13, global = -1.75038e-14, cumulative = -4.05605e-10
ExecutionTime = 9.68 s  ClockTime = 10 s

Time = 3.65

Courant Number mean: 0.00373771 max: 0.0588895
smoothSolver:  Solving for Ux, Initial residual = 0.000210442, Final residual = 6.47249e-06, No Iterations 1
smoothSolver:  Solving for Uy, Initial residual = 0.00102537, Final residual = 1.16823e-06, No Iterations 2
DICPCG:  Solving for p, Initial residual = 0.00525193, Final residual = 0.000259629, No Iterations 55
time step continuity errors : sum local = 2.18229e-10, global = -1.79369e-13, cumulative = -4.05785e-10
DICPCG:  Solving for p, Initial residual = 0.00301394, Final residual = 9.76261e-07, No Iterations 210
time step continuity errors : sum local = 8.1835e-13, global = -1.71429e-14, cumulative = -4.05802e-10
ExecutionTime = 9.79 s  ClockTime = 10 s

Time = 3.7

Courant Number mean: 0.0037374 max: 0.0587969
smoothSolver:  Solving for Ux, Initial residual = 0.000207127, Final residual = 6.35457e-06, No Iterations 1
smoothSolver:  Solving for Uy, Initial residual = 0.00101353, Final residual = 1.14987e-06, No Iterations 2
DICPCG:  Solving for p, Initial residual = 0.00526069, Final residual = 0.00025885, No Iterations 55
time step continuity errors : sum local = 2.16316e-10, global = -1.76262e-13, cumulative = -4.05978e-10
DICPCG:  Solving for p, Initial residual = 0.00299115, Final residual = 9.6247e-07, No Iterations 210
time step continuity errors : sum local = 8.02233e-13, global = -1.68448e-14, cumulative = -4.05995e-10
ExecutionTime = 9.89 s  ClockTime = 10 s

Time = 3.75

Courant Number mean: 0.0037371 max: 0.0587037
smoothSolver:  Solving for Ux, Initial residual = 0.000203905, Final residual = 6.24008e-06, No Iterations 1
smoothSolver:  Solving for Uy, Initial residual = 0.00100185, Final residual = 1.13162e-06, No Iterations 2
DICPCG:  Solving for p, Initial residual = 0.00525564, Final residual = 0.000255443, No Iterations 55
time step continuity errors : sum local = 2.12227e-10, global = -1.74301e-13, cumulative = -4.06169e-10
DICPCG:  Solving for p, Initial residual = 0.00295884, Final residual = 9.6651e-07, No Iterations 210
time step continuity errors : sum local = 8.00771e-13, global = -1.64957e-14, cumulative = -4.06186e-10
ExecutionTime = 10 s  ClockTime = 10 s

Time = 3.8

Courant Number mean: 0.0037368 max: 0.0586099
smoothSolver:  Solving for Ux, Initial residual = 0.000200762, Final residual = 6.12882e-06, No Iterations 1
smoothSolver:  Solving for Uy, Initial residual = 0.000990563, Final residual = 1.11502e-06, No Iterations 2
DICPCG:  Solving for p, Initial residual = 0.00523388, Final residual = 0.000253004, No Iterations 55
time step continuity errors : sum local = 2.08932e-10, global = -1.72683e-13, cumulative = -4.06358e-10
DICPCG:  Solving for p, Initial residual = 0.00293654, Final residual = 9.53554e-07, No Iterations 210
time step continuity errors : sum local = 7.85248e-13, global = -1.60896e-14, cumulative = -4.06375e-10
ExecutionTime = 10.12 s  ClockTime = 10 s

Time = 3.85

Courant Number mean: 0.0037365 max: 0.0585157
smoothSolver:  Solving for Ux, Initial residual = 0.000197699, Final residual = 6.02054e-06, No Iterations 1
smoothSolver:  Solving for Uy, Initial residual = 0.000979555, Final residual = 1.09904e-06, No Iterations 2
DICPCG:  Solving for p, Initial residual = 0.00509713, Final residual = 0.000249125, No Iterations 55
time step continuity errors : sum local = 2.04511e-10, global = -1.70435e-13, cumulative = -4.06545e-10
DICPCG:  Solving for p, Initial residual = 0.00291041, Final residual = 9.47502e-07, No Iterations 210
time step continuity errors : sum local = 7.75757e-13, global = -1.57673e-14, cumulative = -4.06561e-10
ExecutionTime = 10.22 s  ClockTime = 10 s

Time = 3.9

Courant Number mean: 0.00373621 max: 0.058421
smoothSolver:  Solving for Ux, Initial residual = 0.000194717, Final residual = 5.91512e-06, No Iterations 1
smoothSolver:  Solving for Uy, Initial residual = 0.000968662, Final residual = 1.08287e-06, No Iterations 2
DICPCG:  Solving for p, Initial residual = 0.00519913, Final residual = 0.000251138, No Iterations 55
time step continuity errors : sum local = 2.04952e-10, global = -1.66698e-13, cumulative = -4.06727e-10
DICPCG:  Solving for p, Initial residual = 0.0029075, Final residual = 9.27683e-07, No Iterations 210
time step continuity errors : sum local = 7.54982e-13, global = -1.52812e-14, cumulative = -4.06743e-10
ExecutionTime = 10.33 s  ClockTime = 11 s

Time = 3.95

Courant Number mean: 0.00373591 max: 0.0583258
smoothSolver:  Solving for Ux, Initial residual = 0.000191813, Final residual = 5.81251e-06, No Iterations 1
smoothSolver:  Solving for Uy, Initial residual = 0.000958058, Final residual = 1.06783e-06, No Iterations 2
DICPCG:  Solving for p, Initial residual = 0.00500117, Final residual = 0.000246055, No Iterations 55
time step continuity errors : sum local = 1.99626e-10, global = -1.64989e-13, cumulative = -4.06908e-10
DICPCG:  Solving for p, Initial residual = 0.00286791, Final residual = 9.25287e-07, No Iterations 210
time step continuity errors : sum local = 7.48685e-13, global = -1.49367e-14, cumulative = -4.06923e-10
ExecutionTime = 10.44 s  ClockTime = 11 s

Time = 4

Courant Number mean: 0.00373563 max: 0.0582304
smoothSolver:  Solving for Ux, Initial residual = 0.00018899, Final residual = 5.71259e-06, No Iterations 1
smoothSolver:  Solving for Uy, Initial residual = 0.000947591, Final residual = 1.05233e-06, No Iterations 2
DICPCG:  Solving for p, Initial residual = 0.00491287, Final residual = 0.000243027, No Iterations 55
time step continuity errors : sum local = 1.96049e-10, global = -1.6303e-13, cumulative = -4.07086e-10
DICPCG:  Solving for p, Initial residual = 0.00284105, Final residual = 9.93538e-07, No Iterations 209
time step continuity errors : sum local = 7.99425e-13, global = -1.46834e-14, cumulative = -4.071e-10
ExecutionTime = 10.74 s  ClockTime = 11 s

Time = 4.05

Courant Number mean: 0.00373534 max: 0.0581345
smoothSolver:  Solving for Ux, Initial residual = 0.000186239, Final residual = 5.61531e-06, No Iterations 1
smoothSolver:  Solving for Uy, Initial residual = 0.000937287, Final residual = 1.03758e-06, No Iterations 2
DICPCG:  Solving for p, Initial residual = 0.00485455, Final residual = 0.000239953, No Iterations 55
time step continuity errors : sum local = 1.9249e-10, global = -1.60996e-13, cumulative = -4.07261e-10
DICPCG:  Solving for p, Initial residual = 0.0028161, Final residual = 9.82628e-07, No Iterations 209
time step continuity errors : sum local = 7.86241e-13, global = -1.43019e-14, cumulative = -4.07276e-10
ExecutionTime = 10.85 s  ClockTime = 11 s

Time = 4.1

Courant Number mean: 0.00373506 max: 0.0580384
smoothSolver:  Solving for Ux, Initial residual = 0.000183556, Final residual = 5.52053e-06, No Iterations 1
smoothSolver:  Solving for Uy, Initial residual = 0.00092724, Final residual = 1.02323e-06, No Iterations 2
DICPCG:  Solving for p, Initial residual = 0.00483924, Final residual = 0.000239442, No Iterations 55
time step continuity errors : sum local = 1.91023e-10, global = -1.58518e-13, cumulative = -4.07434e-10
DICPCG:  Solving for p, Initial residual = 0.00279533, Final residual = 9.82486e-07, No Iterations 209
time step continuity errors : sum local = 7.81841e-13, global = -1.39961e-14, cumulative = -4.07448e-10
ExecutionTime = 10.96 s  ClockTime = 11 s

Time = 4.15

Courant Number mean: 0.00373478 max: 0.057942
smoothSolver:  Solving for Ux, Initial residual = 0.000180938, Final residual = 5.42836e-06, No Iterations 1
smoothSolver:  Solving for Uy, Initial residual = 0.000917388, Final residual = 1.00926e-06, No Iterations 2
DICPCG:  Solving for p, Initial residual = 0.00479664, Final residual = 0.000231511, No Iterations 56
time step continuity errors : sum local = 1.83685e-10, global = -1.67083e-13, cumulative = -4.07615e-10
DICPCG:  Solving for p, Initial residual = 0.00277512, Final residual = 9.9369e-07, No Iterations 209
time step continuity errors : sum local = 7.86412e-13, global = -1.35885e-14, cumulative = -4.07629e-10
ExecutionTime = 11.07 s  ClockTime = 11 s

Time = 4.2

Courant Number mean: 0.0037345 max: 0.0578454
smoothSolver:  Solving for Ux, Initial residual = 0.000178384, Final residual = 5.33837e-06, No Iterations 1
smoothSolver:  Solving for Uy, Initial residual = 0.000907792, Final residual = 9.96713e-06, No Iterations 1
DICPCG:  Solving for p, Initial residual = 0.0046792, Final residual = 0.000217497, No Iterations 57
time step continuity errors : sum local = 1.7164e-10, global = -1.67563e-13, cumulative = -4.07796e-10
DICPCG:  Solving for p, Initial residual = 0.00276192, Final residual = 9.07897e-07, No Iterations 209
time step continuity errors : sum local = 7.14723e-13, global = -9.26263e-15, cumulative = -4.07806e-10
ExecutionTime = 11.17 s  ClockTime = 11 s

Time = 4.25

Courant Number mean: 0.00373423 max: 0.0577487
smoothSolver:  Solving for Ux, Initial residual = 0.000175819, Final residual = 5.25084e-06, No Iterations 1
smoothSolver:  Solving for Uy, Initial residual = 0.000898032, Final residual = 9.87013e-06, No Iterations 1
DICPCG:  Solving for p, Initial residual = 0.00462224, Final residual = 0.000210055, No Iterations 57
time step continuity errors : sum local = 1.64888e-10, global = -1.68123e-13, cumulative = -4.07974e-10
DICPCG:  Solving for p, Initial residual = 0.00272834, Final residual = 9.08963e-07, No Iterations 209
time step continuity errors : sum local = 7.11764e-13, global = -9.25094e-15, cumulative = -4.07983e-10
ExecutionTime = 11.28 s  ClockTime = 11 s

Time = 4.3

Courant Number mean: 0.00373396 max: 0.0576519
smoothSolver:  Solving for Ux, Initial residual = 0.000173391, Final residual = 5.16554e-06, No Iterations 1
smoothSolver:  Solving for Uy, Initial residual = 0.000888757, Final residual = 9.7501e-06, No Iterations 1
DICPCG:  Solving for p, Initial residual = 0.00461063, Final residual = 0.000211361, No Iterations 57
time step continuity errors : sum local = 1.65041e-10, global = -1.65499e-13, cumulative = -4.08149e-10
DICPCG:  Solving for p, Initial residual = 0.00271131, Final residual = 8.98658e-07, No Iterations 209
time step continuity errors : sum local = 7.0001e-13, global = -9.08596e-15, cumulative = -4.08158e-10
ExecutionTime = 11.39 s  ClockTime = 12 s

Time = 4.35

Courant Number mean: 0.00373369 max: 0.0575549
smoothSolver:  Solving for Ux, Initial residual = 0.000171019, Final residual = 5.08233e-06, No Iterations 1
smoothSolver:  Solving for Uy, Initial residual = 0.000879625, Final residual = 9.63238e-06, No Iterations 1
DICPCG:  Solving for p, Initial residual = 0.0045666, Final residual = 0.000206491, No Iterations 57
time step continuity errors : sum local = 1.60411e-10, global = -1.63722e-13, cumulative = -4.08321e-10
DICPCG:  Solving for p, Initial residual = 0.00268739, Final residual = 8.8653e-07, No Iterations 209
time step continuity errors : sum local = 6.87101e-13, global = -8.86194e-15, cumulative = -4.0833e-10
ExecutionTime = 11.5 s  ClockTime = 12 s

Time = 4.4

Courant Number mean: 0.00373342 max: 0.0574577
smoothSolver:  Solving for Ux, Initial residual = 0.000168704, Final residual = 5.00122e-06, No Iterations 1
smoothSolver:  Solving for Uy, Initial residual = 0.000870697, Final residual = 9.51658e-06, No Iterations 1
DICPCG:  Solving for p, Initial residual = 0.00447766, Final residual = 0.000203903, No Iterations 57
time step continuity errors : sum local = 1.57604e-10, global = -1.61266e-13, cumulative = -4.08491e-10
DICPCG:  Solving for p, Initial residual = 0.00266196, Final residual = 8.83191e-07, No Iterations 209
time step continuity errors : sum local = 6.81056e-13, global = -8.67419e-15, cumulative = -4.085e-10
ExecutionTime = 11.62 s  ClockTime = 12 s

Time = 4.45

Courant Number mean: 0.00373316 max: 0.0573605
smoothSolver:  Solving for Ux, Initial residual = 0.000166444, Final residual = 4.92195e-06, No Iterations 1
smoothSolver:  Solving for Uy, Initial residual = 0.00086197, Final residual = 9.40383e-06, No Iterations 1
DICPCG:  Solving for p, Initial residual = 0.00449753, Final residual = 0.000202842, No Iterations 57
time step continuity errors : sum local = 1.55984e-10, global = -1.58137e-13, cumulative = -4.08658e-10
DICPCG:  Solving for p, Initial residual = 0.00264811, Final residual = 9.94782e-07, No Iterations 208
time step continuity errors : sum local = 7.63145e-13, global = -6.99224e-15, cumulative = -4.08665e-10
ExecutionTime = 11.72 s  ClockTime = 12 s

Time = 4.5

Courant Number mean: 0.00373289 max: 0.0572632
smoothSolver:  Solving for Ux, Initial residual = 0.000164234, Final residual = 4.8445e-06, No Iterations 1
smoothSolver:  Solving for Uy, Initial residual = 0.000853427, Final residual = 9.29449e-06, No Iterations 1
DICPCG:  Solving for p, Initial residual = 0.00438788, Final residual = 0.000200476, No Iterations 57
time step continuity errors : sum local = 1.53387e-10, global = -1.5598e-13, cumulative = -4.08821e-10
DICPCG:  Solving for p, Initial residual = 0.00261984, Final residual = 8.6521e-07, No Iterations 209
time step continuity errors : sum local = 6.60469e-13, global = -8.29737e-15, cumulative = -4.0883e-10
ExecutionTime = 12.02 s  ClockTime = 12 s

Time = 4.55

Courant Number mean: 0.00373263 max: 0.0571783
smoothSolver:  Solving for Ux, Initial residual = 0.000162075, Final residual = 4.76911e-06, No Iterations 1
smoothSolver:  Solving for Uy, Initial residual = 0.000845003, Final residual = 9.18583e-06, No Iterations 1
DICPCG:  Solving for p, Initial residual = 0.00434545, Final residual = 0.00019886, No Iterations 57
time step continuity errors : sum local = 1.51405e-10, global = -1.5519e-13, cumulative = -4.08985e-10
DICPCG:  Solving for p, Initial residual = 0.00259899, Final residual = 9.66532e-07, No Iterations 208
time step continuity errors : sum local = 7.34223e-13, global = -6.66225e-15, cumulative = -4.08991e-10
ExecutionTime = 12.13 s  ClockTime = 12 s

Time = 4.6

Courant Number mean: 0.00373238 max: 0.0571289
smoothSolver:  Solving for Ux, Initial residual = 0.000159964, Final residual = 4.69551e-06, No Iterations 1
smoothSolver:  Solving for Uy, Initial residual = 0.000836772, Final residual = 9.08047e-06, No Iterations 1
DICPCG:  Solving for p, Initial residual = 0.00431937, Final residual = 0.000197304, No Iterations 57
time step continuity errors : sum local = 1.49494e-10, global = -1.52752e-13, cumulative = -4.09144e-10
DICPCG:  Solving for p, Initial residual = 0.00257876, Final residual = 9.56668e-07, No Iterations 208
time step continuity errors : sum local = 7.23242e-13, global = -6.45737e-15, cumulative = -4.09151e-10
ExecutionTime = 12.24 s  ClockTime = 12 s

Time = 4.65

Courant Number mean: 0.00373212 max: 0.057079
smoothSolver:  Solving for Ux, Initial residual = 0.000157899, Final residual = 4.62372e-06, No Iterations 1
smoothSolver:  Solving for Uy, Initial residual = 0.000828715, Final residual = 8.97691e-06, No Iterations 1
DICPCG:  Solving for p, Initial residual = 0.00428735, Final residual = 0.000196035, No Iterations 57
time step continuity errors : sum local = 1.47825e-10, global = -1.50995e-13, cumulative = -4.09302e-10
DICPCG:  Solving for p, Initial residual = 0.00255833, Final residual = 9.7641e-07, No Iterations 208
time step continuity errors : sum local = 7.34669e-13, global = -6.22631e-15, cumulative = -4.09308e-10
ExecutionTime = 12.35 s  ClockTime = 13 s

Time = 4.7

Courant Number mean: 0.00373187 max: 0.0570285
smoothSolver:  Solving for Ux, Initial residual = 0.000155878, Final residual = 4.55353e-06, No Iterations 1
smoothSolver:  Solving for Uy, Initial residual = 0.00082083, Final residual = 8.87571e-06, No Iterations 1
DICPCG:  Solving for p, Initial residual = 0.00425328, Final residual = 0.000194359, No Iterations 57
time step continuity errors : sum local = 1.45866e-10, global = -1.48553e-13, cumulative = -4.09456e-10
DICPCG:  Solving for p, Initial residual = 0.00253706, Final residual = 9.74112e-07, No Iterations 208
time step continuity errors : sum local = 7.29467e-13, global = -5.9715e-15, cumulative = -4.09462e-10
ExecutionTime = 12.45 s  ClockTime = 13 s

Time = 4.75

Courant Number mean: 0.00373162 max: 0.0569775
smoothSolver:  Solving for Ux, Initial residual = 0.000153902, Final residual = 4.48492e-06, No Iterations 1
smoothSolver:  Solving for Uy, Initial residual = 0.000813092, Final residual = 8.77653e-06, No Iterations 1
DICPCG:  Solving for p, Initial residual = 0.00420607, Final residual = 0.000192503, No Iterations 57
time step continuity errors : sum local = 1.43799e-10, global = -1.4703e-13, cumulative = -4.09609e-10
DICPCG:  Solving for p, Initial residual = 0.00251781, Final residual = 9.297e-07, No Iterations 208
time step continuity errors : sum local = 6.93001e-13, global = -6.0836e-15, cumulative = -4.09615e-10
ExecutionTime = 12.57 s  ClockTime = 13 s

Time = 4.8

Courant Number mean: 0.00373137 max: 0.056926
smoothSolver:  Solving for Ux, Initial residual = 0.000151968, Final residual = 4.41805e-06, No Iterations 1
smoothSolver:  Solving for Uy, Initial residual = 0.000805469, Final residual = 8.67891e-06, No Iterations 1
DICPCG:  Solving for p, Initial residual = 0.00418132, Final residual = 0.000190903, No Iterations 57
time step continuity errors : sum local = 1.41952e-10, global = -1.45235e-13, cumulative = -4.09761e-10
DICPCG:  Solving for p, Initial residual = 0.0024985, Final residual = 9.40848e-07, No Iterations 208
time step continuity errors : sum local = 6.98138e-13, global = -5.86914e-15, cumulative = -4.09767e-10
ExecutionTime = 12.68 s  ClockTime = 13 s

Time = 4.85

Courant Number mean: 0.00373113 max: 0.056874
smoothSolver:  Solving for Ux, Initial residual = 0.000150077, Final residual = 4.35269e-06, No Iterations 1
smoothSolver:  Solving for Uy, Initial residual = 0.00079797, Final residual = 8.58318e-06, No Iterations 1
DICPCG:  Solving for p, Initial residual = 0.00416859, Final residual = 0.000189377, No Iterations 57
time step continuity errors : sum local = 1.40185e-10, global = -1.43289e-13, cumulative = -4.0991e-10
DICPCG:  Solving for p, Initial residual = 0.00248179, Final residual = 9.24381e-07, No Iterations 208
time step continuity errors : sum local = 6.8286e-13, global = -5.74695e-15, cumulative = -4.09916e-10
ExecutionTime = 12.78 s  ClockTime = 13 s

Time = 4.9

Courant Number mean: 0.00373088 max: 0.0568216
smoothSolver:  Solving for Ux, Initial residual = 0.000148229, Final residual = 4.28878e-06, No Iterations 1
smoothSolver:  Solving for Uy, Initial residual = 0.000790614, Final residual = 8.49081e-06, No Iterations 1
DICPCG:  Solving for p, Initial residual = 0.00412719, Final residual = 0.000188502, No Iterations 57
time step continuity errors : sum local = 1.38917e-10, global = -1.41442e-13, cumulative = -4.10057e-10
DICPCG:  Solving for p, Initial residual = 0.00246224, Final residual = 9.11831e-07, No Iterations 208
time step continuity errors : sum local = 6.70596e-13, global = -5.69346e-15, cumulative = -4.10063e-10
ExecutionTime = 12.89 s  ClockTime = 13 s

Time = 4.95

Courant Number mean: 0.00373064 max: 0.0567687
smoothSolver:  Solving for Ux, Initial residual = 0.000146423, Final residual = 4.22627e-06, No Iterations 1
smoothSolver:  Solving for Uy, Initial residual = 0.000783406, Final residual = 8.39985e-06, No Iterations 1
DICPCG:  Solving for p, Initial residual = 0.00411315, Final residual = 0.000190554, No Iterations 57
time step continuity errors : sum local = 1.39793e-10, global = -1.39526e-13, cumulative = -4.10202e-10
DICPCG:  Solving for p, Initial residual = 0.00244659, Final residual = 8.94636e-07, No Iterations 208
time step continuity errors : sum local = 6.549e-13, global = -5.1608e-15, cumulative = -4.10207e-10
ExecutionTime = 13 s  ClockTime = 13 s

Time = 5

Courant Number mean: 0.0037304 max: 0.0567154
smoothSolver:  Solving for Ux, Initial residual = 0.000144658, Final residual = 4.1651e-06, No Iterations 1
smoothSolver:  Solving for Uy, Initial residual = 0.000776315, Final residual = 8.31021e-06, No Iterations 1
DICPCG:  Solving for p, Initial residual = 0.00400715, Final residual = 0.000185268, No Iterations 57
time step continuity errors : sum local = 1.35295e-10, global = -1.38284e-13, cumulative = -4.10346e-10
DICPCG:  Solving for p, Initial residual = 0.00242241, Final residual = 8.84055e-07, No Iterations 208
time step continuity errors : sum local = 6.44257e-13, global = -5.26205e-15, cumulative = -4.10351e-10
ExecutionTime = 13.3 s  ClockTime = 14 s

Time = 5.05

Courant Number mean: 0.00373016 max: 0.0566618
smoothSolver:  Solving for Ux, Initial residual = 0.000142931, Final residual = 4.10529e-06, No Iterations 1
smoothSolver:  Solving for Uy, Initial residual = 0.000769337, Final residual = 8.22092e-06, No Iterations 1
DICPCG:  Solving for p, Initial residual = 0.00408943, Final residual = 0.000188378, No Iterations 57
time step continuity errors : sum local = 1.36939e-10, global = -1.36017e-13, cumulative = -4.10487e-10
DICPCG:  Solving for p, Initial residual = 0.00241308, Final residual = 8.63295e-07, No Iterations 208
time step continuity errors : sum local = 6.26197e-13, global = -4.72714e-15, cumulative = -4.10492e-10
ExecutionTime = 13.4 s  ClockTime = 14 s

Time = 5.1

Courant Number mean: 0.00372993 max: 0.0566077
smoothSolver:  Solving for Ux, Initial residual = 0.000141243, Final residual = 4.04684e-06, No Iterations 1
smoothSolver:  Solving for Uy, Initial residual = 0.000762459, Final residual = 8.12987e-06, No Iterations 1
DICPCG:  Solving for p, Initial residual = 0.00396254, Final residual = 0.000181405, No Iterations 57
time step continuity errors : sum local = 1.31271e-10, global = -1.34984e-13, cumulative = -4.10627e-10
DICPCG:  Solving for p, Initial residual = 0.00238521, Final residual = 8.69008e-07, No Iterations 208
time step continuity errors : sum local = 6.27561e-13, global = -5.10766e-15, cumulative = -4.10632e-10
ExecutionTime = 13.52 s  ClockTime = 14 s

Time = 5.15

Courant Number mean: 0.00372969 max: 0.0565533
smoothSolver:  Solving for Ux, Initial residual = 0.000139586, Final residual = 3.98958e-06, No Iterations 1
smoothSolver:  Solving for Uy, Initial residual = 0.000755713, Final residual = 8.04517e-06, No Iterations 1
DICPCG:  Solving for p, Initial residual = 0.00394974, Final residual = 0.000178956, No Iterations 57
time step continuity errors : sum local = 1.2893e-10, global = -1.32696e-13, cumulative = -4.10765e-10
DICPCG:  Solving for p, Initial residual = 0.00236948, Final residual = 8.78769e-07, No Iterations 208
time step continuity errors : sum local = 6.31827e-13, global = -4.88838e-15, cumulative = -4.10769e-10
ExecutionTime = 13.63 s  ClockTime = 14 s

Time = 5.2

Courant Number mean: 0.00372946 max: 0.0564985
smoothSolver:  Solving for Ux, Initial residual = 0.000137965, Final residual = 3.9335e-06, No Iterations 1
smoothSolver:  Solving for Uy, Initial residual = 0.000749074, Final residual = 7.96091e-06, No Iterations 1
DICPCG:  Solving for p, Initial residual = 0.00389085, Final residual = 0.00017816, No Iterations 57
time step continuity errors : sum local = 1.27801e-10, global = -1.31108e-13, cumulative = -4.109e-10
DICPCG:  Solving for p, Initial residual = 0.00234862, Final residual = 8.77015e-07, No Iterations 208
time step continuity errors : sum local = 6.27866e-13, global = -4.59829e-15, cumulative = -4.10905e-10
ExecutionTime = 13.73 s  ClockTime = 14 s

Time = 5.25

Courant Number mean: 0.00372923 max: 0.0564434
smoothSolver:  Solving for Ux, Initial residual = 0.000136379, Final residual = 3.87867e-06, No Iterations 1
smoothSolver:  Solving for Uy, Initial residual = 0.000742553, Final residual = 7.87994e-06, No Iterations 1
DICPCG:  Solving for p, Initial residual = 0.0038692, Final residual = 0.000177427, No Iterations 57
time step continuity errors : sum local = 1.26733e-10, global = -1.29718e-13, cumulative = -4.11035e-10
DICPCG:  Solving for p, Initial residual = 0.00233059, Final residual = 9.88193e-07, No Iterations 207
time step continuity errors : sum local = 7.04464e-13, global = -2.54363e-15, cumulative = -4.11037e-10
ExecutionTime = 13.84 s  ClockTime = 14 s

Time = 5.3

Courant Number mean: 0.003729 max: 0.056388
smoothSolver:  Solving for Ux, Initial residual = 0.000134825, Final residual = 3.82499e-06, No Iterations 1
smoothSolver:  Solving for Uy, Initial residual = 0.000736143, Final residual = 7.79983e-06, No Iterations 1
DICPCG:  Solving for p, Initial residual = 0.0038321, Final residual = 0.000175923, No Iterations 57
time step continuity errors : sum local = 1.2513e-10, global = -1.27656e-13, cumulative = -4.11165e-10
DICPCG:  Solving for p, Initial residual = 0.00231304, Final residual = 9.73793e-07, No Iterations 207
time step continuity errors : sum local = 6.91297e-13, global = -2.29525e-15, cumulative = -4.11167e-10
ExecutionTime = 13.95 s  ClockTime = 14 s

Time = 5.35

Courant Number mean: 0.00372878 max: 0.0563322
smoothSolver:  Solving for Ux, Initial residual = 0.000133305, Final residual = 3.77253e-06, No Iterations 1
smoothSolver:  Solving for Uy, Initial residual = 0.00072983, Final residual = 7.72067e-06, No Iterations 1
DICPCG:  Solving for p, Initial residual = 0.00383085, Final residual = 0.000176676, No Iterations 57
time step continuity errors : sum local = 1.25144e-10, global = -1.26536e-13, cumulative = -4.11294e-10
DICPCG:  Solving for p, Initial residual = 0.00230179, Final residual = 9.56899e-07, No Iterations 207
time step continuity errors : sum local = 6.765e-13, global = -2.36758e-15, cumulative = -4.11296e-10
ExecutionTime = 14.06 s  ClockTime = 14 s

Time = 5.4

Courant Number mean: 0.00372855 max: 0.0562762
smoothSolver:  Solving for Ux, Initial residual = 0.000131816, Final residual = 3.7212e-06, No Iterations 1
smoothSolver:  Solving for Uy, Initial residual = 0.000723621, Final residual = 7.64257e-06, No Iterations 1
DICPCG:  Solving for p, Initial residual = 0.003784, Final residual = 0.000174556, No Iterations 57
time step continuity errors : sum local = 1.2314e-10, global = -1.25169e-13, cumulative = -4.11421e-10
DICPCG:  Solving for p, Initial residual = 0.00228199, Final residual = 9.59866e-07, No Iterations 207
time step continuity errors : sum local = 6.75882e-13, global = -2.19779e-15, cumulative = -4.11424e-10
ExecutionTime = 14.17 s  ClockTime = 14 s

Time = 5.45

Courant Number mean: 0.00372833 max: 0.0562199
smoothSolver:  Solving for Ux, Initial residual = 0.000130357, Final residual = 3.6709e-06, No Iterations 1
[...]
time step continuity errors : sum local = 3.95256e-13, global = 4.37101e-14, cumulative = -3.96762e-10
ExecutionTime = 88.36 s  ClockTime = 89 s

Time = 38.7

Courant Number mean: 0.00367529 max: 0.034983
smoothSolver:  Solving for Ux, Initial residual = 2.12647e-05, Final residual = 2.22049e-07, No Iterations 1
smoothSolver:  Solving for Uy, Initial residual = 0.000154493, Final residual = 7.14027e-07, No Iterations 1
DICPCG:  Solving for p, Initial residual = 0.000392169, Final residual = 1.93019e-05, No Iterations 55
time step continuity errors : sum local = 7.83541e-12, global = 3.43409e-14, cumulative = -3.96728e-10
DICPCG:  Solving for p, Initial residual = 0.000257668, Final residual = 9.77604e-07, No Iterations 116
time step continuity errors : sum local = 3.96803e-13, global = 4.47581e-14, cumulative = -3.96683e-10
ExecutionTime = 88.44 s  ClockTime = 90 s

Time = 38.75

Courant Number mean: 0.00367525 max: 0.0349703
smoothSolver:  Solving for Ux, Initial residual = 2.12451e-05, Final residual = 2.21656e-07, No Iterations 1
smoothSolver:  Solving for Uy, Initial residual = 0.000154348, Final residual = 7.12697e-07, No Iterations 1
DICPCG:  Solving for p, Initial residual = 0.000390915, Final residual = 1.9267e-05, No Iterations 55
time step continuity errors : sum local = 7.81944e-12, global = 3.56751e-14, cumulative = -3.96647e-10
DICPCG:  Solving for p, Initial residual = 0.000257221, Final residual = 9.82063e-07, No Iterations 116
time step continuity errors : sum local = 3.98523e-13, global = 4.5901e-14, cumulative = -3.96601e-10
ExecutionTime = 88.52 s  ClockTime = 90 s

Time = 38.8

Courant Number mean: 0.00367521 max: 0.0349577
smoothSolver:  Solving for Ux, Initial residual = 2.12255e-05, Final residual = 2.21265e-07, No Iterations 1
smoothSolver:  Solving for Uy, Initial residual = 0.000154203, Final residual = 7.1136e-07, No Iterations 1
DICPCG:  Solving for p, Initial residual = 0.000390637, Final residual = 1.92373e-05, No Iterations 55
time step continuity errors : sum local = 7.80563e-12, global = 3.70404e-14, cumulative = -3.96564e-10
DICPCG:  Solving for p, Initial residual = 0.00025682, Final residual = 9.86402e-07, No Iterations 116
time step continuity errors : sum local = 4.00194e-13, global = 4.69288e-14, cumulative = -3.96517e-10
ExecutionTime = 88.59 s  ClockTime = 90 s

Time = 38.85

Courant Number mean: 0.00367517 max: 0.034945
smoothSolver:  Solving for Ux, Initial residual = 2.1206e-05, Final residual = 2.20874e-07, No Iterations 1
smoothSolver:  Solving for Uy, Initial residual = 0.000154059, Final residual = 7.1003e-07, No Iterations 1
DICPCG:  Solving for p, Initial residual = 0.000391605, Final residual = 1.92894e-05, No Iterations 55
time step continuity errors : sum local = 7.82502e-12, global = 3.78636e-14, cumulative = -3.9648e-10
DICPCG:  Solving for p, Initial residual = 0.00025708, Final residual = 9.89913e-07, No Iterations 116
time step continuity errors : sum local = 4.01526e-13, global = 4.77254e-14, cumulative = -3.96432e-10
ExecutionTime = 88.68 s  ClockTime = 90 s

Time = 38.9

Courant Number mean: 0.00367513 max: 0.0349324
smoothSolver:  Solving for Ux, Initial residual = 2.11866e-05, Final residual = 2.20492e-07, No Iterations 1
smoothSolver:  Solving for Uy, Initial residual = 0.000153915, Final residual = 7.08698e-07, No Iterations 1
DICPCG:  Solving for p, Initial residual = 0.000389493, Final residual = 1.92066e-05, No Iterations 55
time step continuity errors : sum local = 7.78961e-12, global = 3.84831e-14, cumulative = -3.96393e-10
DICPCG:  Solving for p, Initial residual = 0.000256259, Final residual = 9.88707e-07, No Iterations 116
time step continuity errors : sum local = 4.00946e-13, global = 4.79692e-14, cumulative = -3.96345e-10
ExecutionTime = 88.76 s  ClockTime = 90 s

Time = 38.95

Courant Number mean: 0.00367508 max: 0.0349197
smoothSolver:  Solving for Ux, Initial residual = 2.11671e-05, Final residual = 2.20103e-07, No Iterations 1
smoothSolver:  Solving for Uy, Initial residual = 0.000153771, Final residual = 7.07377e-07, No Iterations 1
DICPCG:  Solving for p, Initial residual = 0.000389754, Final residual = 1.91396e-05, No Iterations 55
time step continuity errors : sum local = 7.76073e-12, global = 3.8133e-14, cumulative = -3.96307e-10
DICPCG:  Solving for p, Initial residual = 0.000255788, Final residual = 9.86313e-07, No Iterations 116
time step continuity errors : sum local = 3.99886e-13, global = 4.76505e-14, cumulative = -3.9626e-10
ExecutionTime = 88.84 s  ClockTime = 90 s

Time = 39

Courant Number mean: 0.00367504 max: 0.0349071
smoothSolver:  Solving for Ux, Initial residual = 2.11477e-05, Final residual = 2.19715e-07, No Iterations 1
smoothSolver:  Solving for Uy, Initial residual = 0.000153627, Final residual = 7.06054e-07, No Iterations 1
DICPCG:  Solving for p, Initial residual = 0.00038862, Final residual = 1.91936e-05, No Iterations 55
time step continuity errors : sum local = 7.78086e-12, global = 3.73223e-14, cumulative = -3.96222e-10
DICPCG:  Solving for p, Initial residual = 0.000255534, Final residual = 9.82813e-07, No Iterations 116
time step continuity errors : sum local = 3.98375e-13, global = 4.66569e-14, cumulative = -3.96176e-10
ExecutionTime = 89.11 s  ClockTime = 90 s

Time = 39.05

Courant Number mean: 0.003675 max: 0.0348946
smoothSolver:  Solving for Ux, Initial residual = 2.11283e-05, Final residual = 2.1933e-07, No Iterations 1
smoothSolver:  Solving for Uy, Initial residual = 0.000153484, Final residual = 7.04807e-07, No Iterations 1
DICPCG:  Solving for p, Initial residual = 0.000387736, Final residual = 1.9154e-05, No Iterations 55
time step continuity errors : sum local = 7.76301e-12, global = 3.60231e-14, cumulative = -3.9614e-10
DICPCG:  Solving for p, Initial residual = 0.000255031, Final residual = 9.74077e-07, No Iterations 116
time step continuity errors : sum local = 3.94744e-13, global = 4.57508e-14, cumulative = -3.96094e-10
ExecutionTime = 89.18 s  ClockTime = 90 s

Time = 39.1

Courant Number mean: 0.00367496 max: 0.034882
smoothSolver:  Solving for Ux, Initial residual = 2.11089e-05, Final residual = 2.18944e-07, No Iterations 1
smoothSolver:  Solving for Uy, Initial residual = 0.000153341, Final residual = 7.03519e-07, No Iterations 1
DICPCG:  Solving for p, Initial residual = 0.000386818, Final residual = 1.91389e-05, No Iterations 55
time step continuity errors : sum local = 7.7551e-12, global = 3.50257e-14, cumulative = -3.96059e-10
DICPCG:  Solving for p, Initial residual = 0.000254619, Final residual = 9.69132e-07, No Iterations 116
time step continuity errors : sum local = 3.9265e-13, global = 4.49017e-14, cumulative = -3.96014e-10
ExecutionTime = 89.27 s  ClockTime = 90 s

Time = 39.15

Courant Number mean: 0.00367492 max: 0.0348695
smoothSolver:  Solving for Ux, Initial residual = 2.10896e-05, Final residual = 2.1856e-07, No Iterations 1
smoothSolver:  Solving for Uy, Initial residual = 0.000153198, Final residual = 7.02224e-07, No Iterations 1
DICPCG:  Solving for p, Initial residual = 0.000386285, Final residual = 1.91262e-05, No Iterations 55
time step continuity errors : sum local = 7.7482e-12, global = 3.43605e-14, cumulative = -3.9598e-10
DICPCG:  Solving for p, Initial residual = 0.000254234, Final residual = 9.64985e-07, No Iterations 116
time step continuity errors : sum local = 3.90882e-13, global = 4.42905e-14, cumulative = -3.95935e-10
ExecutionTime = 89.34 s  ClockTime = 90 s

Time = 39.2

Courant Number mean: 0.00367488 max: 0.0348569
smoothSolver:  Solving for Ux, Initial residual = 2.10703e-05, Final residual = 2.18176e-07, No Iterations 1
smoothSolver:  Solving for Uy, Initial residual = 0.000153055, Final residual = 7.00932e-07, No Iterations 1
DICPCG:  Solving for p, Initial residual = 0.000386015, Final residual = 1.91244e-05, No Iterations 55
time step continuity errors : sum local = 7.74574e-12, global = 3.40361e-14, cumulative = -3.95901e-10
DICPCG:  Solving for p, Initial residual = 0.000253877, Final residual = 9.62301e-07, No Iterations 116
time step continuity errors : sum local = 3.89708e-13, global = 4.39469e-14, cumulative = -3.95857e-10
ExecutionTime = 89.43 s  ClockTime = 91 s

Time = 39.25

Courant Number mean: 0.00367484 max: 0.0348444
smoothSolver:  Solving for Ux, Initial residual = 2.10511e-05, Final residual = 2.17794e-07, No Iterations 1
smoothSolver:  Solving for Uy, Initial residual = 0.000152914, Final residual = 6.99644e-07, No Iterations 1
DICPCG:  Solving for p, Initial residual = 0.000386065, Final residual = 1.91375e-05, No Iterations 55
time step continuity errors : sum local = 7.74934e-12, global = 3.39867e-14, cumulative = -3.95823e-10
DICPCG:  Solving for p, Initial residual = 0.000253555, Final residual = 9.60502e-07, No Iterations 116
time step continuity errors : sum local = 3.88894e-13, global = 4.38002e-14, cumulative = -3.95779e-10
ExecutionTime = 89.5 s  ClockTime = 91 s

Time = 39.3

Courant Number mean: 0.0036748 max: 0.0348319
smoothSolver:  Solving for Ux, Initial residual = 2.10319e-05, Final residual = 2.17413e-07, No Iterations 1
smoothSolver:  Solving for Uy, Initial residual = 0.000152772, Final residual = 6.98361e-07, No Iterations 1
DICPCG:  Solving for p, Initial residual = 0.000386702, Final residual = 1.91759e-05, No Iterations 55
time step continuity errors : sum local = 7.76322e-12, global = 3.40538e-14, cumulative = -3.95745e-10
DICPCG:  Solving for p, Initial residual = 0.000253301, Final residual = 9.58816e-07, No Iterations 116
time step continuity errors : sum local = 3.88128e-13, global = 4.36866e-14, cumulative = -3.95702e-10
ExecutionTime = 89.58 s  ClockTime = 91 s

Time = 39.35

Courant Number mean: 0.00367476 max: 0.0348195
smoothSolver:  Solving for Ux, Initial residual = 2.10127e-05, Final residual = 2.17032e-07, No Iterations 1
smoothSolver:  Solving for Uy, Initial residual = 0.000152631, Final residual = 6.97082e-07, No Iterations 1
DICPCG:  Solving for p, Initial residual = 0.000388794, Final residual = 1.92561e-05, No Iterations 55
time step continuity errors : sum local = 7.79401e-12, global = 3.39978e-14, cumulative = -3.95668e-10
DICPCG:  Solving for p, Initial residual = 0.000253216, Final residual = 9.55528e-07, No Iterations 116
time step continuity errors : sum local = 3.86716e-13, global = 4.32881e-14, cumulative = -3.95624e-10
ExecutionTime = 89.65 s  ClockTime = 91 s

Time = 39.4

Courant Number mean: 0.00367471 max: 0.034807
smoothSolver:  Solving for Ux, Initial residual = 2.09935e-05, Final residual = 2.16651e-07, No Iterations 1
smoothSolver:  Solving for Uy, Initial residual = 0.000152491, Final residual = 6.95809e-07, No Iterations 1
DICPCG:  Solving for p, Initial residual = 0.000397572, Final residual = 1.95848e-05, No Iterations 55
time step continuity errors : sum local = 7.92549e-12, global = 3.33683e-14, cumulative = -3.95591e-10
DICPCG:  Solving for p, Initial residual = 0.00025392, Final residual = 9.45024e-07, No Iterations 116
time step continuity errors : sum local = 3.82392e-13, global = 4.14761e-14, cumulative = -3.9555e-10
ExecutionTime = 89.73 s  ClockTime = 91 s

Time = 39.45

Courant Number mean: 0.00367467 max: 0.0347946
smoothSolver:  Solving for Ux, Initial residual = 2.09742e-05, Final residual = 2.16264e-07, No Iterations 1
smoothSolver:  Solving for Uy, Initial residual = 0.000152354, Final residual = 6.94548e-07, No Iterations 1
DICPCG:  Solving for p, Initial residual = 0.000393009, Final residual = 1.92974e-05, No Iterations 55
time step continuity errors : sum local = 7.80751e-12, global = 3.04005e-14, cumulative = -3.95519e-10
DICPCG:  Solving for p, Initial residual = 0.000253002, Final residual = 9.51683e-07, No Iterations 116
time step continuity errors : sum local = 3.84995e-13, global = 4.30333e-14, cumulative = -3.95476e-10
ExecutionTime = 89.82 s  ClockTime = 91 s

Time = 39.5

Courant Number mean: 0.00367463 max: 0.0347822
smoothSolver:  Solving for Ux, Initial residual = 2.09556e-05, Final residual = 2.15898e-07, No Iterations 1
smoothSolver:  Solving for Uy, Initial residual = 0.00015221, Final residual = 6.93258e-07, No Iterations 1
DICPCG:  Solving for p, Initial residual = 0.000411065, Final residual = 1.94671e-05, No Iterations 55
time step continuity errors : sum local = 7.87419e-12, global = 3.49278e-14, cumulative = -3.95441e-10
DICPCG:  Solving for p, Initial residual = 0.000254676, Final residual = 9.80884e-07, No Iterations 116
time step continuity errors : sum local = 3.96705e-13, global = 4.84702e-14, cumulative = -3.95393e-10
ExecutionTime = 90.09 s  ClockTime = 91 s

Time = 39.55

Courant Number mean: 0.00367459 max: 0.0347698
smoothSolver:  Solving for Ux, Initial residual = 2.09374e-05, Final residual = 2.15544e-07, No Iterations 1
smoothSolver:  Solving for Uy, Initial residual = 0.000152062, Final residual = 6.92026e-07, No Iterations 1
DICPCG:  Solving for p, Initial residual = 0.000387241, Final residual = 1.88785e-05, No Iterations 55
time step continuity errors : sum local = 7.63427e-12, global = 4.3851e-14, cumulative = -3.95349e-10
DICPCG:  Solving for p, Initial residual = 0.000251452, Final residual = 9.97064e-07, No Iterations 116
time step continuity errors : sum local = 4.03158e-13, global = 5.17955e-14, cumulative = -3.95297e-10
ExecutionTime = 90.17 s  ClockTime = 91 s

Time = 39.6

Courant Number mean: 0.00367455 max: 0.0347574
smoothSolver:  Solving for Ux, Initial residual = 2.09185e-05, Final residual = 2.15168e-07, No Iterations 1
smoothSolver:  Solving for Uy, Initial residual = 0.000151923, Final residual = 6.90764e-07, No Iterations 1
DICPCG:  Solving for p, Initial residual = 0.000385716, Final residual = 1.88892e-05, No Iterations 55
time step continuity errors : sum local = 7.63692e-12, global = 4.48315e-14, cumulative = -3.95252e-10
DICPCG:  Solving for p, Initial residual = 0.000251136, Final residual = 9.50977e-07, No Iterations 117
time step continuity errors : sum local = 3.84439e-13, global = 5.17876e-14, cumulative = -3.95201e-10
ExecutionTime = 90.24 s  ClockTime = 91 s

Time = 39.65

Courant Number mean: 0.00367451 max: 0.034745
smoothSolver:  Solving for Ux, Initial residual = 2.08996e-05, Final residual = 2.14795e-07, No Iterations 1
smoothSolver:  Solving for Uy, Initial residual = 0.000151783, Final residual = 6.89498e-07, No Iterations 1
DICPCG:  Solving for p, Initial residual = 0.000386351, Final residual = 1.88914e-05, No Iterations 55
time step continuity errors : sum local = 7.63612e-12, global = 4.3184e-14, cumulative = -3.95157e-10
DICPCG:  Solving for p, Initial residual = 0.000250867, Final residual = 9.56855e-07, No Iterations 117
time step continuity errors : sum local = 3.86731e-13, global = 5.03832e-14, cumulative = -3.95107e-10
ExecutionTime = 90.32 s  ClockTime = 91 s

Time = 39.7

Courant Number mean: 0.00367447 max: 0.0347327
smoothSolver:  Solving for Ux, Initial residual = 2.08808e-05, Final residual = 2.14422e-07, No Iterations 1
smoothSolver:  Solving for Uy, Initial residual = 0.000151645, Final residual = 6.8824e-07, No Iterations 1
DICPCG:  Solving for p, Initial residual = 0.000388587, Final residual = 1.88838e-05, No Iterations 55
time step continuity errors : sum local = 7.63142e-12, global = 3.97979e-14, cumulative = -3.95067e-10
DICPCG:  Solving for p, Initial residual = 0.000250739, Final residual = 9.81177e-07, No Iterations 116
time step continuity errors : sum local = 3.96476e-13, global = 4.86024e-14, cumulative = -3.95019e-10
ExecutionTime = 90.4 s  ClockTime = 92 s

Time = 39.75

Courant Number mean: 0.00367443 max: 0.0347204
smoothSolver:  Solving for Ux, Initial residual = 2.0862e-05, Final residual = 2.14051e-07, No Iterations 1
smoothSolver:  Solving for Uy, Initial residual = 0.000151507, Final residual = 6.86994e-07, No Iterations 1
DICPCG:  Solving for p, Initial residual = 0.000396396, Final residual = 1.89492e-05, No Iterations 55
time step continuity errors : sum local = 7.65618e-12, global = 3.65719e-14, cumulative = -3.94982e-10
DICPCG:  Solving for p, Initial residual = 0.00025118, Final residual = 9.6315e-07, No Iterations 116
time step continuity errors : sum local = 3.89108e-13, global = 4.69958e-14, cumulative = -3.94935e-10
ExecutionTime = 90.48 s  ClockTime = 92 s

Time = 39.8

Courant Number mean: 0.00367439 max: 0.0347081
smoothSolver:  Solving for Ux, Initial residual = 2.08434e-05, Final residual = 2.1368e-07, No Iterations 1
smoothSolver:  Solving for Uy, Initial residual = 0.000151368, Final residual = 6.85767e-07, No Iterations 1
DICPCG:  Solving for p, Initial residual = 0.000392261, Final residual = 1.90953e-05, No Iterations 55
time step continuity errors : sum local = 7.71361e-12, global = 3.58016e-14, cumulative = -3.94899e-10
DICPCG:  Solving for p, Initial residual = 0.000250463, Final residual = 9.57906e-07, No Iterations 116
time step continuity errors : sum local = 3.86911e-13, global = 4.61189e-14, cumulative = -3.94853e-10
ExecutionTime = 90.56 s  ClockTime = 92 s

Time = 39.85

Courant Number mean: 0.00367435 max: 0.0346958
smoothSolver:  Solving for Ux, Initial residual = 2.08248e-05, Final residual = 2.13314e-07, No Iterations 1
smoothSolver:  Solving for Uy, Initial residual = 0.000151229, Final residual = 6.84469e-07, No Iterations 1
DICPCG:  Solving for p, Initial residual = 0.000409467, Final residual = 1.98636e-05, No Iterations 55
time step continuity errors : sum local = 8.02241e-12, global = 3.54253e-14, cumulative = -3.94818e-10
DICPCG:  Solving for p, Initial residual = 0.000251967, Final residual = 9.97446e-07, No Iterations 115
time step continuity errors : sum local = 4.02806e-13, global = 4.38598e-14, cumulative = -3.94774e-10
ExecutionTime = 90.64 s  ClockTime = 92 s

Time = 39.9

Courant Number mean: 0.00367431 max: 0.0346835
smoothSolver:  Solving for Ux, Initial residual = 2.08064e-05, Final residual = 2.1296e-07, No Iterations 1
smoothSolver:  Solving for Uy, Initial residual = 0.000151092, Final residual = 6.83196e-07, No Iterations 1
DICPCG:  Solving for p, Initial residual = 0.00039168, Final residual = 1.92255e-05, No Iterations 55
time step continuity errors : sum local = 7.76321e-12, global = 3.20817e-14, cumulative = -3.94742e-10
DICPCG:  Solving for p, Initial residual = 0.000249976, Final residual = 9.53207e-07, No Iterations 116
time step continuity errors : sum local = 3.84866e-13, global = 4.31009e-14, cumulative = -3.94699e-10
ExecutionTime = 90.72 s  ClockTime = 92 s

Time = 39.95

Courant Number mean: 0.00367427 max: 0.0346712
smoothSolver:  Solving for Ux, Initial residual = 2.0788e-05, Final residual = 2.12599e-07, No Iterations 1
smoothSolver:  Solving for Uy, Initial residual = 0.000150953, Final residual = 6.81941e-07, No Iterations 1
DICPCG:  Solving for p, Initial residual = 0.000416303, Final residual = 1.96966e-05, No Iterations 55
time step continuity errors : sum local = 7.9515e-12, global = 3.31075e-14, cumulative = -3.94665e-10
DICPCG:  Solving for p, Initial residual = 0.000252427, Final residual = 9.67565e-07, No Iterations 115
time step continuity errors : sum local = 3.90549e-13, global = 3.64303e-14, cumulative = -3.94629e-10
ExecutionTime = 90.79 s  ClockTime = 92 s

Time = 40

Courant Number mean: 0.00367423 max: 0.034659
smoothSolver:  Solving for Ux, Initial residual = 2.07685e-05, Final residual = 2.1221e-07, No Iterations 1
smoothSolver:  Solving for Uy, Initial residual = 0.000150827, Final residual = 6.8076e-07, No Iterations 1
DICPCG:  Solving for p, Initial residual = 0.000391995, Final residual = 1.91985e-05, No Iterations 55
time step continuity errors : sum local = 7.74832e-12, global = 2.15281e-14, cumulative = -3.94608e-10
DICPCG:  Solving for p, Initial residual = 0.000249389, Final residual = 9.56353e-07, No Iterations 115
time step continuity errors : sum local = 3.85927e-13, global = 3.12238e-14, cumulative = -3.94576e-10
ExecutionTime = 91.06 s  ClockTime = 92 s

End

