/*---------------------------------------------------------------------------*\
  =========                 |
  \\      /  F ield         | OpenFOAM: The Open Source CFD Toolbox
   \\    /   O peration     | Website:  https://openfoam.org
    \\  /    A nd           | Version:  7
     \\/     M anipulation  |
\*---------------------------------------------------------------------------*/
Build  : 7-49b2b3b8b082
Exec   : icoFoam
Date   : May 14 2021
Time   : 19:18:03
Host   : "c405-134.stampede2.tacc.utexas.edu"
PID    : 114633
I/O    : uncollated
Case   : /work2/06782/kenmeyer/stampede2/final_serial/COE347/finalProject/test_movingboundary/box05_space/box05
nProcs : 1
sigFpe : Enabling floating point exception trapping (FOAM_SIGFPE).
fileModificationChecking : Monitoring run-time modified files using timeStampMaster (fileModificationSkew 10)
allowSystemOperations : Allowing user-supplied system call operations

// * * * * * * * * * * * * * * * * * * * * * * * * * * * * * * * * * * * * * //
Create time

Create mesh for time = 0

Reading transportProperties

Reading field p

Reading field U

Reading/calculating face flux field phi


Starting time loop

Time = 0.05

Courant Number mean: 0.0106196 max: 0.153931
smoothSolver:  Solving for Ux, Initial residual = 1, Final residual = 7.87064e-06, No Iterations 18
smoothSolver:  Solving for Uy, Initial residual = 0, Final residual = 0, No Iterations 0
DICPCG:  Solving for p, Initial residual = 1, Final residual = 0.0498386, No Iterations 233
time step continuity errors : sum local = 5.34685e-07, global = -1.11666e-08, cumulative = -1.11666e-08
DICPCG:  Solving for p, Initial residual = 0.10007, Final residual = 9.05157e-07, No Iterations 385
time step continuity errors : sum local = 2.07138e-10, global = 1.33555e-12, cumulative = -1.11652e-08
ExecutionTime = 1.2 s  ClockTime = 1 s

Time = 0.1

Courant Number mean: 0.0108889 max: 0.197803
smoothSolver:  Solving for Ux, Initial residual = 0.333247, Final residual = 5.51687e-06, No Iterations 14
smoothSolver:  Solving for Uy, Initial residual = 0.329393, Final residual = 6.44646e-06, No Iterations 13
DICPCG:  Solving for p, Initial residual = 0.109831, Final residual = 0.00499052, No Iterations 224
time step continuity errors : sum local = 1.06682e-06, global = 1.40157e-08, cumulative = 2.8505e-09
DICPCG:  Solving for p, Initial residual = 0.239636, Final residual = 9.81651e-07, No Iterations 394
time step continuity errors : sum local = 1.03052e-10, global = -7.54339e-13, cumulative = 2.84974e-09
ExecutionTime = 1.94 s  ClockTime = 2 s

Time = 0.15

Courant Number mean: 0.0110161 max: 0.216916
smoothSolver:  Solving for Ux, Initial residual = 0.0696801, Final residual = 7.44433e-06, No Iterations 12
smoothSolver:  Solving for Uy, Initial residual = 0.0956977, Final residual = 7.72168e-06, No Iterations 11
DICPCG:  Solving for p, Initial residual = 0.341679, Final residual = 0.0169089, No Iterations 119
time step continuity errors : sum local = 9.39405e-07, global = -1.94336e-07, cumulative = -1.91486e-07
DICPCG:  Solving for p, Initial residual = 0.217656, Final residual = 9.55598e-07, No Iterations 370
time step continuity errors : sum local = 4.31105e-11, global = 3.21335e-13, cumulative = -1.91486e-07
ExecutionTime = 2.54 s  ClockTime = 2 s

Time = 0.2

Courant Number mean: 0.0109633 max: 0.18368
smoothSolver:  Solving for Ux, Initial residual = 0.0286146, Final residual = 9.26983e-06, No Iterations 10
smoothSolver:  Solving for Uy, Initial residual = 0.0303249, Final residual = 8.37219e-06, No Iterations 8
DICPCG:  Solving for p, Initial residual = 0.20252, Final residual = 0.00997377, No Iterations 175
time step continuity errors : sum local = 2.67564e-07, global = 1.7971e-08, cumulative = -1.73515e-07
DICPCG:  Solving for p, Initial residual = 0.219527, Final residual = 9.67534e-07, No Iterations 369
time step continuity errors : sum local = 1.29052e-11, global = 6.89126e-14, cumulative = -1.73515e-07
ExecutionTime = 3.19 s  ClockTime = 3 s

Time = 0.25

Courant Number mean: 0.0109495 max: 0.170644
smoothSolver:  Solving for Ux, Initial residual = 0.010454, Final residual = 9.96535e-06, No Iterations 10
smoothSolver:  Solving for Uy, Initial residual = 0.00813427, Final residual = 8.77893e-06, No Iterations 8
DICPCG:  Solving for p, Initial residual = 0.140908, Final residual = 0.00681195, No Iterations 96
time step continuity errors : sum local = 8.47119e-08, global = -4.11851e-09, cumulative = -1.77633e-07
DICPCG:  Solving for p, Initial residual = 0.0786736, Final residual = 9.82069e-07, No Iterations 338
time step continuity errors : sum local = 1.14144e-11, global = -9.01535e-14, cumulative = -1.77633e-07
ExecutionTime = 3.72 s  ClockTime = 4 s

Time = 0.3

Courant Number mean: 0.0109316 max: 0.169819
smoothSolver:  Solving for Ux, Initial residual = 0.0116164, Final residual = 8.30437e-06, No Iterations 10
smoothSolver:  Solving for Uy, Initial residual = 0.00976658, Final residual = 6.35013e-06, No Iterations 8
DICPCG:  Solving for p, Initial residual = 0.059854, Final residual = 0.00298822, No Iterations 91
time step continuity errors : sum local = 3.84571e-08, global = 1.59459e-09, cumulative = -1.76039e-07
DICPCG:  Solving for p, Initial residual = 0.0247416, Final residual = 8.85183e-07, No Iterations 355
time step continuity errors : sum local = 1.13251e-11, global = 9.42002e-15, cumulative = -1.76039e-07
ExecutionTime = 4.26 s  ClockTime = 4 s

Time = 0.35

Courant Number mean: 0.0109169 max: 0.168957
smoothSolver:  Solving for Ux, Initial residual = 0.00941399, Final residual = 6.92775e-06, No Iterations 10
smoothSolver:  Solving for Uy, Initial residual = 0.00800904, Final residual = 5.57533e-06, No Iterations 8
DICPCG:  Solving for p, Initial residual = 0.038443, Final residual = 0.00182626, No Iterations 82
time step continuity errors : sum local = 2.18726e-08, global = -5.60906e-10, cumulative = -1.76599e-07
DICPCG:  Solving for p, Initial residual = 0.0113385, Final residual = 9.9392e-07, No Iterations 346
time step continuity errors : sum local = 1.18057e-11, global = 5.22728e-14, cumulative = -1.76599e-07
ExecutionTime = 4.79 s  ClockTime = 5 s

Time = 0.4

Courant Number mean: 0.0109034 max: 0.167668
smoothSolver:  Solving for Ux, Initial residual = 0.00789409, Final residual = 5.61807e-06, No Iterations 10
smoothSolver:  Solving for Uy, Initial residual = 0.00730421, Final residual = 8.74265e-06, No Iterations 7
DICPCG:  Solving for p, Initial residual = 0.029828, Final residual = 0.00142609, No Iterations 100
time step continuity errors : sum local = 1.65657e-08, global = 3.13685e-10, cumulative = -1.76286e-07
DICPCG:  Solving for p, Initial residual = 0.00687893, Final residual = 9.80638e-07, No Iterations 335
time step continuity errors : sum local = 1.13301e-11, global = 1.59323e-13, cumulative = -1.76286e-07
ExecutionTime = 5.31 s  ClockTime = 5 s

Time = 0.45

Courant Number mean: 0.0108909 max: 0.166136
smoothSolver:  Solving for Ux, Initial residual = 0.00671224, Final residual = 8.30893e-06, No Iterations 9
smoothSolver:  Solving for Uy, Initial residual = 0.00671723, Final residual = 7.75374e-06, No Iterations 7
DICPCG:  Solving for p, Initial residual = 0.0250354, Final residual = 0.00121909, No Iterations 98
time step continuity errors : sum local = 1.37801e-08, global = 2.90764e-10, cumulative = -1.75995e-07
DICPCG:  Solving for p, Initial residual = 0.00526419, Final residual = 9.48283e-07, No Iterations 341
time step continuity errors : sum local = 1.06401e-11, global = 2.3348e-14, cumulative = -1.75995e-07
ExecutionTime = 5.85 s  ClockTime = 6 s

Time = 0.5

Courant Number mean: 0.0108793 max: 0.164413
smoothSolver:  Solving for Ux, Initial residual = 0.00581886, Final residual = 6.99071e-06, No Iterations 9
smoothSolver:  Solving for Uy, Initial residual = 0.00623743, Final residual = 6.92474e-06, No Iterations 7
DICPCG:  Solving for p, Initial residual = 0.0221074, Final residual = 0.00107728, No Iterations 82
time step continuity errors : sum local = 1.18535e-08, global = -1.5289e-10, cumulative = -1.76148e-07
DICPCG:  Solving for p, Initial residual = 0.00441223, Final residual = 9.14949e-07, No Iterations 339
time step continuity errors : sum local = 1.00124e-11, global = 5.16275e-14, cumulative = -1.76148e-07
ExecutionTime = 6.84 s  ClockTime = 7 s

Time = 0.55

Courant Number mean: 0.0108684 max: 0.16257
smoothSolver:  Solving for Ux, Initial residual = 0.00513117, Final residual = 5.96237e-06, No Iterations 9
smoothSolver:  Solving for Uy, Initial residual = 0.00583499, Final residual = 6.22501e-06, No Iterations 7
DICPCG:  Solving for p, Initial residual = 0.0198607, Final residual = 0.000967708, No Iterations 82
time step continuity errors : sum local = 1.04095e-08, global = -1.41242e-10, cumulative = -1.76289e-07
DICPCG:  Solving for p, Initial residual = 0.00395025, Final residual = 9.97248e-07, No Iterations 293
time step continuity errors : sum local = 1.06646e-11, global = 1.4421e-13, cumulative = -1.76289e-07
ExecutionTime = 7.3 s  ClockTime = 7 s

Time = 0.6

Courant Number mean: 0.0108581 max: 0.160653
smoothSolver:  Solving for Ux, Initial residual = 0.00459095, Final residual = 9.34732e-06, No Iterations 8
smoothSolver:  Solving for Uy, Initial residual = 0.00550563, Final residual = 5.65533e-06, No Iterations 7
DICPCG:  Solving for p, Initial residual = 0.0179544, Final residual = 0.000871211, No Iterations 82
time step continuity errors : sum local = 9.17623e-09, global = -1.26832e-10, cumulative = -1.76415e-07
DICPCG:  Solving for p, Initial residual = 0.00354084, Final residual = 9.72875e-07, No Iterations 330
time step continuity errors : sum local = 1.01965e-11, global = 9.62933e-14, cumulative = -1.76415e-07
ExecutionTime = 7.8 s  ClockTime = 8 s

Time = 0.65

Courant Number mean: 0.0108483 max: 0.158704
smoothSolver:  Solving for Ux, Initial residual = 0.00415995, Final residual = 8.19031e-06, No Iterations 8
smoothSolver:  Solving for Uy, Initial residual = 0.00521964, Final residual = 9.61586e-06, No Iterations 6
DICPCG:  Solving for p, Initial residual = 0.0163809, Final residual = 0.000764993, No Iterations 82
time step continuity errors : sum local = 7.90938e-09, global = -1.07761e-10, cumulative = -1.76523e-07
DICPCG:  Solving for p, Initial residual = 0.00320593, Final residual = 9.76018e-07, No Iterations 328
time step continuity errors : sum local = 1.00402e-11, global = 8.34454e-14, cumulative = -1.76523e-07
ExecutionTime = 8.3 s  ClockTime = 8 s

Time = 0.7

Courant Number mean: 0.010839 max: 0.156745
smoothSolver:  Solving for Ux, Initial residual = 0.00380685, Final residual = 7.24301e-06, No Iterations 8
smoothSolver:  Solving for Uy, Initial residual = 0.0049758, Final residual = 8.87152e-06, No Iterations 6
DICPCG:  Solving for p, Initial residual = 0.0150176, Final residual = 0.00073626, No Iterations 81
time step continuity errors : sum local = 7.48033e-09, global = -1.02784e-10, cumulative = -1.76626e-07
DICPCG:  Solving for p, Initial residual = 0.00289589, Final residual = 9.99025e-07, No Iterations 326
time step continuity errors : sum local = 1.01045e-11, global = 8.21601e-14, cumulative = -1.76626e-07
ExecutionTime = 8.79 s  ClockTime = 9 s

Time = 0.75

Courant Number mean: 0.0108301 max: 0.154797
smoothSolver:  Solving for Ux, Initial residual = 0.00351068, Final residual = 6.45837e-06, No Iterations 8
smoothSolver:  Solving for Uy, Initial residual = 0.00476161, Final residual = 8.21106e-06, No Iterations 6
DICPCG:  Solving for p, Initial residual = 0.0138586, Final residual = 0.000674604, No Iterations 81
time step continuity errors : sum local = 6.74728e-09, global = -8.59769e-11, cumulative = -1.76712e-07
DICPCG:  Solving for p, Initial residual = 0.00268442, Final residual = 9.44714e-07, No Iterations 326
time step continuity errors : sum local = 9.40633e-12, global = 8.79592e-14, cumulative = -1.76712e-07
ExecutionTime = 9.29 s  ClockTime = 9 s

Time = 0.8

Courant Number mean: 0.0108215 max: 0.152872
smoothSolver:  Solving for Ux, Initial residual = 0.00325767, Final residual = 5.80098e-06, No Iterations 8
smoothSolver:  Solving for Uy, Initial residual = 0.00457031, Final residual = 7.63297e-06, No Iterations 6
DICPCG:  Solving for p, Initial residual = 0.0128399, Final residual = 0.000639824, No Iterations 80
time step continuity errors : sum local = 6.30326e-09, global = -8.32686e-11, cumulative = -1.76795e-07
DICPCG:  Solving for p, Initial residual = 0.00247867, Final residual = 9.01999e-07, No Iterations 325
time step continuity errors : sum local = 8.84865e-12, global = 8.29121e-14, cumulative = -1.76795e-07
ExecutionTime = 9.77 s  ClockTime = 10 s

Time = 0.85

Courant Number mean: 0.0108133 max: 0.15098
smoothSolver:  Solving for Ux, Initial residual = 0.00303932, Final residual = 9.64037e-06, No Iterations 7
smoothSolver:  Solving for Uy, Initial residual = 0.00439934, Final residual = 7.12131e-06, No Iterations 6
DICPCG:  Solving for p, Initial residual = 0.0119066, Final residual = 0.000568769, No Iterations 82
time step continuity errors : sum local = 5.52554e-09, global = -6.4288e-11, cumulative = -1.76859e-07
DICPCG:  Solving for p, Initial residual = 0.00236319, Final residual = 9.08423e-07, No Iterations 324
time step continuity errors : sum local = 8.78905e-12, global = 9.82329e-14, cumulative = -1.76859e-07
ExecutionTime = 10.26 s  ClockTime = 10 s

Time = 0.9

Courant Number mean: 0.0108054 max: 0.149132
smoothSolver:  Solving for Ux, Initial residual = 0.00284627, Final residual = 8.79132e-06, No Iterations 7
smoothSolver:  Solving for Uy, Initial residual = 0.00423757, Final residual = 6.66632e-06, No Iterations 6
DICPCG:  Solving for p, Initial residual = 0.0111649, Final residual = 0.000554958, No Iterations 80
time step continuity errors : sum local = 5.31757e-09, global = -7.48481e-11, cumulative = -1.76934e-07
DICPCG:  Solving for p, Initial residual = 0.00219184, Final residual = 9.76579e-07, No Iterations 323
time step continuity errors : sum local = 9.32179e-12, global = 1.04947e-13, cumulative = -1.76934e-07
ExecutionTime = 10.76 s  ClockTime = 11 s

Time = 0.95

Courant Number mean: 0.0107977 max: 0.147326
smoothSolver:  Solving for Ux, Initial residual = 0.00267976, Final residual = 8.04986e-06, No Iterations 7
smoothSolver:  Solving for Uy, Initial residual = 0.00409906, Final residual = 6.25835e-06, No Iterations 6
DICPCG:  Solving for p, Initial residual = 0.0104524, Final residual = 0.000519791, No Iterations 80
time step continuity errors : sum local = 4.9193e-09, global = -6.11049e-11, cumulative = -1.76995e-07
DICPCG:  Solving for p, Initial residual = 0.00210768, Final residual = 9.83414e-07, No Iterations 322
time step continuity errors : sum local = 9.27115e-12, global = 1.2688e-13, cumulative = -1.76995e-07
ExecutionTime = 11.24 s  ClockTime = 11 s

Time = 1

Courant Number mean: 0.0107903 max: 0.145564
smoothSolver:  Solving for Ux, Initial residual = 0.00253129, Final residual = 7.40541e-06, No Iterations 7
smoothSolver:  Solving for Uy, Initial residual = 0.00397056, Final residual = 5.88932e-06, No Iterations 6
DICPCG:  Solving for p, Initial residual = 0.00983338, Final residual = 0.000484608, No Iterations 80
time step continuity errors : sum local = 4.53091e-09, global = -5.91793e-11, cumulative = -1.77054e-07
DICPCG:  Solving for p, Initial residual = 0.00196782, Final residual = 9.83169e-07, No Iterations 321
time step continuity errors : sum local = 9.159e-12, global = 1.33073e-13, cumulative = -1.77054e-07
ExecutionTime = 12.17 s  ClockTime = 12 s

Time = 1.05

Courant Number mean: 0.0107831 max: 0.143848
smoothSolver:  Solving for Ux, Initial residual = 0.00239888, Final residual = 6.8407e-06, No Iterations 7
smoothSolver:  Solving for Uy, Initial residual = 0.00385231, Final residual = 5.5551e-06, No Iterations 6
DICPCG:  Solving for p, Initial residual = 0.00929537, Final residual = 0.000458206, No Iterations 80
time step continuity errors : sum local = 4.23542e-09, global = -5.31408e-11, cumulative = -1.77107e-07
DICPCG:  Solving for p, Initial residual = 0.00186615, Final residual = 9.8868e-07, No Iterations 320
time step continuity errors : sum local = 9.10614e-12, global = 1.4732e-13, cumulative = -1.77107e-07
ExecutionTime = 12.66 s  ClockTime = 13 s

Time = 1.1

Courant Number mean: 0.0107761 max: 0.142177
smoothSolver:  Solving for Ux, Initial residual = 0.00227975, Final residual = 6.34299e-06, No Iterations 7
smoothSolver:  Solving for Uy, Initial residual = 0.00374259, Final residual = 5.25266e-06, No Iterations 6
DICPCG:  Solving for p, Initial residual = 0.00883308, Final residual = 0.000437511, No Iterations 79
time step continuity errors : sum local = 3.99953e-09, global = -5.20567e-11, cumulative = -1.77159e-07
DICPCG:  Solving for p, Initial residual = 0.0017756, Final residual = 9.51786e-07, No Iterations 319
time step continuity errors : sum local = 8.67109e-12, global = 1.5202e-13, cumulative = -1.77159e-07
ExecutionTime = 13.14 s  ClockTime = 13 s

Time = 1.15

Courant Number mean: 0.0107693 max: 0.14055
smoothSolver:  Solving for Ux, Initial residual = 0.00217204, Final residual = 5.90204e-06, No Iterations 7
smoothSolver:  Solving for Uy, Initial residual = 0.00364064, Final residual = 9.62469e-06, No Iterations 5
DICPCG:  Solving for p, Initial residual = 0.00844634, Final residual = 0.000421518, No Iterations 80
time step continuity errors : sum local = 3.81261e-09, global = -4.74499e-11, cumulative = -1.77206e-07
DICPCG:  Solving for p, Initial residual = 0.00177482, Final residual = 9.81769e-07, No Iterations 319
time step continuity errors : sum local = 8.84947e-12, global = 1.46183e-13, cumulative = -1.77206e-07
ExecutionTime = 13.62 s  ClockTime = 13 s

Time = 1.2

Courant Number mean: 0.0107626 max: 0.138968
smoothSolver:  Solving for Ux, Initial residual = 0.00207375, Final residual = 5.50935e-06, No Iterations 7
smoothSolver:  Solving for Uy, Initial residual = 0.00354507, Final residual = 9.17755e-06, No Iterations 5
DICPCG:  Solving for p, Initial residual = 0.00808874, Final residual = 0.000397138, No Iterations 80
time step continuity errors : sum local = 3.55476e-09, global = -4.72292e-11, cumulative = -1.77253e-07
DICPCG:  Solving for p, Initial residual = 0.00169053, Final residual = 9.64891e-07, No Iterations 318
time step continuity errors : sum local = 8.60869e-12, global = 1.50957e-13, cumulative = -1.77253e-07
ExecutionTime = 14.1 s  ClockTime = 14 s

Time = 1.25

Courant Number mean: 0.0107561 max: 0.137429
smoothSolver:  Solving for Ux, Initial residual = 0.00198454, Final residual = 9.69105e-06, No Iterations 6
smoothSolver:  Solving for Uy, Initial residual = 0.00345612, Final residual = 8.74471e-06, No Iterations 5
DICPCG:  Solving for p, Initial residual = 0.00774974, Final residual = 0.000386589, No Iterations 83
time step continuity errors : sum local = 3.42608e-09, global = -3.11138e-11, cumulative = -1.77284e-07
DICPCG:  Solving for p, Initial residual = 0.00178598, Final residual = 9.45462e-07, No Iterations 318
time step continuity errors : sum local = 8.35137e-12, global = 1.40929e-13, cumulative = -1.77284e-07
ExecutionTime = 14.58 s  ClockTime = 14 s

Time = 1.3

Courant Number mean: 0.0107498 max: 0.135937
smoothSolver:  Solving for Ux, Initial residual = 0.00189997, Final residual = 9.12931e-06, No Iterations 6
smoothSolver:  Solving for Uy, Initial residual = 0.00336438, Final residual = 8.34945e-06, No Iterations 5
DICPCG:  Solving for p, Initial residual = 0.00744098, Final residual = 0.000364593, No Iterations 81
time step continuity errors : sum local = 3.19786e-09, global = -4.76008e-11, cumulative = -1.77332e-07
DICPCG:  Solving for p, Initial residual = 0.00167165, Final residual = 9.86323e-07, No Iterations 317
time step continuity errors : sum local = 8.62476e-12, global = 1.56418e-13, cumulative = -1.77332e-07
ExecutionTime = 15.05 s  ClockTime = 15 s

Time = 1.35

Courant Number mean: 0.0107437 max: 0.134484
smoothSolver:  Solving for Ux, Initial residual = 0.00182563, Final residual = 8.60619e-06, No Iterations 6
smoothSolver:  Solving for Uy, Initial residual = 0.00328698, Final residual = 7.98058e-06, No Iterations 5
DICPCG:  Solving for p, Initial residual = 0.00722684, Final residual = 0.000355444, No Iterations 81
time step continuity errors : sum local = 3.08936e-09, global = -3.69589e-11, cumulative = -1.77368e-07
DICPCG:  Solving for p, Initial residual = 0.00165347, Final residual = 9.2992e-07, No Iterations 317
time step continuity errors : sum local = 8.05761e-12, global = 1.48655e-13, cumulative = -1.77368e-07
ExecutionTime = 15.54 s  ClockTime = 15 s

Time = 1.4

Courant Number mean: 0.0107377 max: 0.133068
smoothSolver:  Solving for Ux, Initial residual = 0.00175622, Final residual = 8.13313e-06, No Iterations 6
smoothSolver:  Solving for Uy, Initial residual = 0.00321219, Final residual = 7.63743e-06, No Iterations 5
DICPCG:  Solving for p, Initial residual = 0.0070141, Final residual = 0.000343559, No Iterations 81
time step continuity errors : sum local = 2.9585e-09, global = -3.81165e-11, cumulative = -1.77406e-07
DICPCG:  Solving for p, Initial residual = 0.00160532, Final residual = 9.16044e-07, No Iterations 317
time step continuity errors : sum local = 7.86433e-12, global = 1.41785e-13, cumulative = -1.77406e-07
ExecutionTime = 16.01 s  ClockTime = 16 s

Time = 1.45

Courant Number mean: 0.0107318 max: 0.131689
smoothSolver:  Solving for Ux, Initial residual = 0.00169196, Final residual = 7.70124e-06, No Iterations 6
smoothSolver:  Solving for Uy, Initial residual = 0.00314166, Final residual = 7.31763e-06, No Iterations 5
DICPCG:  Solving for p, Initial residual = 0.00674, Final residual = 0.000332921, No Iterations 81
time step continuity errors : sum local = 2.84119e-09, global = -3.4887e-11, cumulative = -1.77441e-07
DICPCG:  Solving for p, Initial residual = 0.00154451, Final residual = 9.46553e-07, No Iterations 316
time step continuity errors : sum local = 8.0534e-12, global = 1.55549e-13, cumulative = -1.77441e-07
ExecutionTime = 16.49 s  ClockTime = 16 s

Time = 1.5

Courant Number mean: 0.010726 max: 0.130405
smoothSolver:  Solving for Ux, Initial residual = 0.0016321, Final residual = 7.3065e-06, No Iterations 6
smoothSolver:  Solving for Uy, Initial residual = 0.00307423, Final residual = 7.02112e-06, No Iterations 5
DICPCG:  Solving for p, Initial residual = 0.00649088, Final residual = 0.000320749, No Iterations 81
time step continuity errors : sum local = 2.7132e-09, global = -3.37669e-11, cumulative = -1.77475e-07
DICPCG:  Solving for p, Initial residual = 0.0014886, Final residual = 9.19106e-07, No Iterations 316
time step continuity errors : sum local = 7.75193e-12, global = 1.46073e-13, cumulative = -1.77475e-07
ExecutionTime = 17.42 s  ClockTime = 17 s

Time = 1.55

Courant Number mean: 0.0107203 max: 0.130388
smoothSolver:  Solving for Ux, Initial residual = 0.0015763, Final residual = 6.94453e-06, No Iterations 6
smoothSolver:  Solving for Uy, Initial residual = 0.00300979, Final residual = 6.74305e-06, No Iterations 5
DICPCG:  Solving for p, Initial residual = 0.00634463, Final residual = 0.000315155, No Iterations 81
time step continuity errors : sum local = 2.64329e-09, global = -3.17835e-11, cumulative = -1.77506e-07
DICPCG:  Solving for p, Initial residual = 0.00145083, Final residual = 9.53584e-07, No Iterations 315
time step continuity errors : sum local = 7.97525e-12, global = 1.54651e-13, cumulative = -1.77506e-07
ExecutionTime = 17.9 s  ClockTime = 18 s

Time = 1.6

Courant Number mean: 0.0107148 max: 0.13036
smoothSolver:  Solving for Ux, Initial residual = 0.00152412, Final residual = 6.61173e-06, No Iterations 6
smoothSolver:  Solving for Uy, Initial residual = 0.00294792, Final residual = 6.48337e-06, No Iterations 5
DICPCG:  Solving for p, Initial residual = 0.00618231, Final residual = 0.000306518, No Iterations 81
time step continuity errors : sum local = 2.5494e-09, global = -3.0866e-11, cumulative = -1.77537e-07
DICPCG:  Solving for p, Initial residual = 0.00141607, Final residual = 9.2735e-07, No Iterations 315
time step continuity errors : sum local = 7.69116e-12, global = 1.46472e-13, cumulative = -1.77537e-07
ExecutionTime = 18.37 s  ClockTime = 18 s

Time = 1.65

Courant Number mean: 0.0107094 max: 0.130322
smoothSolver:  Solving for Ux, Initial residual = 0.00147508, Final residual = 6.30474e-06, No Iterations 6
smoothSolver:  Solving for Uy, Initial residual = 0.00288934, Final residual = 6.24039e-06, No Iterations 5
DICPCG:  Solving for p, Initial residual = 0.00604713, Final residual = 0.000284504, No Iterations 82
time step continuity errors : sum local = 2.34692e-09, global = -2.82096e-11, cumulative = -1.77565e-07
DICPCG:  Solving for p, Initial residual = 0.00137144, Final residual = 9.99586e-07, No Iterations 314
time step continuity errors : sum local = 8.22265e-12, global = 1.46891e-13, cumulative = -1.77565e-07
ExecutionTime = 18.85 s  ClockTime = 19 s

Time = 1.7

Courant Number mean: 0.010704 max: 0.130273
smoothSolver:  Solving for Ux, Initial residual = 0.00142881, Final residual = 6.02097e-06, No Iterations 6
smoothSolver:  Solving for Uy, Initial residual = 0.00283344, Final residual = 6.01085e-06, No Iterations 5
DICPCG:  Solving for p, Initial residual = 0.00586988, Final residual = 0.000292073, No Iterations 81
time step continuity errors : sum local = 2.39008e-09, global = -2.78247e-11, cumulative = -1.77593e-07
DICPCG:  Solving for p, Initial residual = 0.00134302, Final residual = 9.64465e-07, No Iterations 314
time step continuity errors : sum local = 7.87109e-12, global = 1.38151e-13, cumulative = -1.77593e-07
ExecutionTime = 19.32 s  ClockTime = 19 s

Time = 1.75

Courant Number mean: 0.0106988 max: 0.130214
smoothSolver:  Solving for Ux, Initial residual = 0.00138537, Final residual = 5.75819e-06, No Iterations 6
smoothSolver:  Solving for Uy, Initial residual = 0.002779, Final residual = 5.79738e-06, No Iterations 5
DICPCG:  Solving for p, Initial residual = 0.00576751, Final residual = 0.000285859, No Iterations 81
time step continuity errors : sum local = 2.32073e-09, global = -2.69796e-11, cumulative = -1.7762e-07
DICPCG:  Solving for p, Initial residual = 0.00132892, Final residual = 9.72018e-07, No Iterations 314
time step continuity errors : sum local = 7.86942e-12, global = 1.36793e-13, cumulative = -1.7762e-07
ExecutionTime = 19.8 s  ClockTime = 20 s

Time = 1.8

Courant Number mean: 0.0106937 max: 0.130146
smoothSolver:  Solving for Ux, Initial residual = 0.00134435, Final residual = 5.51387e-06, No Iterations 6
smoothSolver:  Solving for Uy, Initial residual = 0.00272686, Final residual = 5.59364e-06, No Iterations 5
DICPCG:  Solving for p, Initial residual = 0.00563316, Final residual = 0.000279751, No Iterations 81
time step continuity errors : sum local = 2.25338e-09, global = -2.5966e-11, cumulative = -1.77646e-07
DICPCG:  Solving for p, Initial residual = 0.00128861, Final residual = 9.94858e-07, No Iterations 313
time step continuity errors : sum local = 7.99192e-12, global = 1.2676e-13, cumulative = -1.77645e-07
ExecutionTime = 20.27 s  ClockTime = 20 s

Time = 1.85

Courant Number mean: 0.0106886 max: 0.130068
smoothSolver:  Solving for Ux, Initial residual = 0.00130558, Final residual = 5.28671e-06, No Iterations 6
smoothSolver:  Solving for Uy, Initial residual = 0.00267655, Final residual = 5.40225e-06, No Iterations 5
DICPCG:  Solving for p, Initial residual = 0.00550299, Final residual = 0.000272568, No Iterations 81
time step continuity errors : sum local = 2.17869e-09, global = -2.50024e-11, cumulative = -1.7767e-07
DICPCG:  Solving for p, Initial residual = 0.00126456, Final residual = 9.71802e-07, No Iterations 313
time step continuity errors : sum local = 7.7472e-12, global = 1.2491e-13, cumulative = -1.7767e-07
ExecutionTime = 20.74 s  ClockTime = 21 s

Time = 1.9

Courant Number mean: 0.0106837 max: 0.129981
smoothSolver:  Solving for Ux, Initial residual = 0.00126883, Final residual = 9.84806e-06, No Iterations 5
smoothSolver:  Solving for Uy, Initial residual = 0.00262801, Final residual = 5.22164e-06, No Iterations 5
DICPCG:  Solving for p, Initial residual = 0.00541676, Final residual = 0.000261411, No Iterations 98
time step continuity errors : sum local = 2.07379e-09, global = 7.17813e-11, cumulative = -1.77599e-07
DICPCG:  Solving for p, Initial residual = 0.00156067, Final residual = 9.01075e-07, No Iterations 316
time step continuity errors : sum local = 7.12918e-12, global = 1.09716e-13, cumulative = -1.77598e-07
ExecutionTime = 21.22 s  ClockTime = 21 s

Time = 1.95

Courant Number mean: 0.0106788 max: 0.129886
smoothSolver:  Solving for Ux, Initial residual = 0.00123143, Final residual = 9.5055e-06, No Iterations 5
smoothSolver:  Solving for Uy, Initial residual = 0.002573, Final residual = 5.05691e-06, No Iterations 5
DICPCG:  Solving for p, Initial residual = 0.00529395, Final residual = 0.000257539, No Iterations 83
time step continuity errors : sum local = 2.02654e-09, global = -2.27971e-11, cumulative = -1.77621e-07
DICPCG:  Solving for p, Initial residual = 0.00145454, Final residual = 9.34692e-07, No Iterations 315
time step continuity errors : sum local = 7.33737e-12, global = 1.26061e-13, cumulative = -1.77621e-07
ExecutionTime = 21.7 s  ClockTime = 22 s

Time = 2

Courant Number mean: 0.0106741 max: 0.129782
smoothSolver:  Solving for Ux, Initial residual = 0.00119899, Final residual = 9.15702e-06, No Iterations 5
smoothSolver:  Solving for Uy, Initial residual = 0.00252829, Final residual = 4.89304e-06, No Iterations 5
DICPCG:  Solving for p, Initial residual = 0.005228, Final residual = 0.000252795, No Iterations 96
time step continuity errors : sum local = 1.97528e-09, global = 3.18422e-11, cumulative = -1.77589e-07
DICPCG:  Solving for p, Initial residual = 0.00144872, Final residual = 9.84895e-07, No Iterations 314
time step continuity errors : sum local = 7.67606e-12, global = 1.2821e-13, cumulative = -1.77589e-07
ExecutionTime = 22.64 s  ClockTime = 23 s

Time = 2.05

Courant Number mean: 0.0106694 max: 0.12967
smoothSolver:  Solving for Ux, Initial residual = 0.0011678, Final residual = 8.83275e-06, No Iterations 5
smoothSolver:  Solving for Uy, Initial residual = 0.00248597, Final residual = 9.79376e-06, No Iterations 4
DICPCG:  Solving for p, Initial residual = 0.00519478, Final residual = 0.000257642, No Iterations 83
time step continuity errors : sum local = 1.99887e-09, global = -1.87851e-11, cumulative = -1.77608e-07
DICPCG:  Solving for p, Initial residual = 0.00155049, Final residual = 9.99374e-07, No Iterations 315
time step continuity errors : sum local = 7.7353e-12, global = 1.20255e-13, cumulative = -1.77608e-07
ExecutionTime = 23.11 s  ClockTime = 23 s

Time = 2.1

Courant Number mean: 0.0106648 max: 0.129551
smoothSolver:  Solving for Ux, Initial residual = 0.00113749, Final residual = 8.52706e-06, No Iterations 5
smoothSolver:  Solving for Uy, Initial residual = 0.00244236, Final residual = 9.5424e-06, No Iterations 4
DICPCG:  Solving for p, Initial residual = 0.00510551, Final residual = 0.000252788, No Iterations 96
time step continuity errors : sum local = 1.94718e-09, global = 1.93807e-11, cumulative = -1.77588e-07
DICPCG:  Solving for p, Initial residual = 0.00151075, Final residual = 9.96791e-07, No Iterations 314
time step continuity errors : sum local = 7.65873e-12, global = 1.32613e-13, cumulative = -1.77588e-07
ExecutionTime = 23.59 s  ClockTime = 23 s

Time = 2.15

Courant Number mean: 0.0106602 max: 0.129425
smoothSolver:  Solving for Ux, Initial residual = 0.00110923, Final residual = 8.23757e-06, No Iterations 5
smoothSolver:  Solving for Uy, Initial residual = 0.002403, Final residual = 9.27708e-06, No Iterations 4
DICPCG:  Solving for p, Initial residual = 0.00495687, Final residual = 0.000241381, No Iterations 84
time step continuity errors : sum local = 1.84646e-09, global = -1.81692e-11, cumulative = -1.77606e-07
DICPCG:  Solving for p, Initial residual = 0.00146346, Final residual = 9.8448e-07, No Iterations 314
time step continuity errors : sum local = 7.51334e-12, global = 1.12304e-13, cumulative = -1.77606e-07
ExecutionTime = 24.06 s  ClockTime = 24 s

Time = 2.2

Courant Number mean: 0.0106557 max: 0.129292
smoothSolver:  Solving for Ux, Initial residual = 0.00108191, Final residual = 7.96483e-06, No Iterations 5
smoothSolver:  Solving for Uy, Initial residual = 0.00236213, Final residual = 9.01264e-06, No Iterations 4
DICPCG:  Solving for p, Initial residual = 0.00486453, Final residual = 0.000239803, No Iterations 97
time step continuity errors : sum local = 1.82178e-09, global = 2.51364e-11, cumulative = -1.77581e-07
DICPCG:  Solving for p, Initial residual = 0.00143468, Final residual = 9.47987e-07, No Iterations 314
time step continuity errors : sum local = 7.18444e-12, global = 1.24545e-13, cumulative = -1.77581e-07
ExecutionTime = 24.55 s  ClockTime = 24 s

Time = 2.25

Courant Number mean: 0.0106513 max: 0.129153
smoothSolver:  Solving for Ux, Initial residual = 0.00105602, Final residual = 7.70598e-06, No Iterations 5
smoothSolver:  Solving for Uy, Initial residual = 0.00232492, Final residual = 8.77038e-06, No Iterations 4
DICPCG:  Solving for p, Initial residual = 0.00479687, Final residual = 0.000235294, No Iterations 84
time step continuity errors : sum local = 1.77567e-09, global = -1.64729e-11, cumulative = -1.77598e-07
DICPCG:  Solving for p, Initial residual = 0.00141492, Final residual = 9.7423e-07, No Iterations 314
time step continuity errors : sum local = 7.33592e-12, global = 1.1116e-13, cumulative = -1.77597e-07
ExecutionTime = 25.02 s  ClockTime = 25 s

Time = 2.3

Courant Number mean: 0.010647 max: 0.129007
smoothSolver:  Solving for Ux, Initial residual = 0.00103093, Final residual = 7.46154e-06, No Iterations 5
smoothSolver:  Solving for Uy, Initial residual = 0.00228634, Final residual = 8.52758e-06, No Iterations 4
DICPCG:  Solving for p, Initial residual = 0.00472032, Final residual = 0.000233311, No Iterations 97
time step continuity errors : sum local = 1.74908e-09, global = 2.45332e-11, cumulative = -1.77573e-07
DICPCG:  Solving for p, Initial residual = 0.00139272, Final residual = 9.96414e-07, No Iterations 313
time step continuity errors : sum local = 7.45248e-12, global = 1.18802e-13, cumulative = -1.77573e-07
ExecutionTime = 25.5 s  ClockTime = 25 s

Time = 2.35

Courant Number mean: 0.0106427 max: 0.128856
smoothSolver:  Solving for Ux, Initial residual = 0.00100712, Final residual = 7.22893e-06, No Iterations 5
smoothSolver:  Solving for Uy, Initial residual = 0.00225115, Final residual = 8.30363e-06, No Iterations 4
DICPCG:  Solving for p, Initial residual = 0.00465829, Final residual = 0.000229222, No Iterations 84
time step continuity errors : sum local = 1.70739e-09, global = -1.56902e-11, cumulative = -1.77588e-07
DICPCG:  Solving for p, Initial residual = 0.00137426, Final residual = 9.4547e-07, No Iterations 314
time step continuity errors : sum local = 7.02738e-12, global = 1.06756e-13, cumulative = -1.77588e-07
ExecutionTime = 25.98 s  ClockTime = 26 s

Time = 2.4

Courant Number mean: 0.0106385 max: 0.128699
smoothSolver:  Solving for Ux, Initial residual = 0.000984014, Final residual = 7.00893e-06, No Iterations 5
smoothSolver:  Solving for Uy, Initial residual = 0.00221469, Final residual = 8.08182e-06, No Iterations 4
DICPCG:  Solving for p, Initial residual = 0.0045983, Final residual = 0.00022552, No Iterations 97
time step continuity errors : sum local = 1.66907e-09, global = 2.39034e-11, cumulative = -1.77564e-07
DICPCG:  Solving for p, Initial residual = 0.00134825, Final residual = 9.27151e-07, No Iterations 314
time step continuity errors : sum local = 6.84643e-12, global = 1.15195e-13, cumulative = -1.77564e-07
ExecutionTime = 26.46 s  ClockTime = 26 s

Time = 2.45

Courant Number mean: 0.0106343 max: 0.128537
smoothSolver:  Solving for Ux, Initial residual = 0.000962062, Final residual = 6.79909e-06, No Iterations 5
smoothSolver:  Solving for Uy, Initial residual = 0.00218137, Final residual = 7.87713e-06, No Iterations 4
DICPCG:  Solving for p, Initial residual = 0.00455738, Final residual = 0.000226686, No Iterations 84
time step continuity errors : sum local = 1.66721e-09, global = -1.47089e-11, cumulative = -1.77579e-07
DICPCG:  Solving for p, Initial residual = 0.00133934, Final residual = 9.25078e-07, No Iterations 314
time step continuity errors : sum local = 6.78945e-12, global = 1.033e-13, cumulative = -1.77579e-07
ExecutionTime = 26.93 s  ClockTime = 27 s

Time = 2.5

Courant Number mean: 0.0106302 max: 0.12837
smoothSolver:  Solving for Ux, Initial residual = 0.000940703, Final residual = 6.6e-06, No Iterations 5
smoothSolver:  Solving for Uy, Initial residual = 0.0021467, Final residual = 7.67336e-06, No Iterations 4
DICPCG:  Solving for p, Initial residual = 0.00449211, Final residual = 0.00021917, No Iterations 97
time step continuity errors : sum local = 1.60186e-09, global = 2.41356e-11, cumulative = -1.77555e-07
DICPCG:  Solving for p, Initial residual = 0.00131423, Final residual = 9.52421e-07, No Iterations 313
time step continuity errors : sum local = 6.94566e-12, global = 1.10619e-13, cumulative = -1.77555e-07
ExecutionTime = 27.86 s  ClockTime = 28 s

Time = 2.55

Courant Number mean: 0.0106261 max: 0.128198
smoothSolver:  Solving for Ux, Initial residual = 0.000920389, Final residual = 6.40974e-06, No Iterations 5
smoothSolver:  Solving for Uy, Initial residual = 0.00211505, Final residual = 7.4851e-06, No Iterations 4
DICPCG:  Solving for p, Initial residual = 0.00446838, Final residual = 0.000219499, No Iterations 84
time step continuity errors : sum local = 1.59444e-09, global = -1.44737e-11, cumulative = -1.77569e-07
DICPCG:  Solving for p, Initial residual = 0.00130809, Final residual = 9.82924e-07, No Iterations 313
time step continuity errors : sum local = 7.12525e-12, global = 9.94731e-14, cumulative = -1.77569e-07
ExecutionTime = 28.33 s  ClockTime = 28 s

Time = 2.6

Courant Number mean: 0.0106222 max: 0.128022
smoothSolver:  Solving for Ux, Initial residual = 0.000900598, Final residual = 6.22889e-06, No Iterations 5
smoothSolver:  Solving for Uy, Initial residual = 0.00208227, Final residual = 7.29967e-06, No Iterations 4
DICPCG:  Solving for p, Initial residual = 0.0044141, Final residual = 0.000218163, No Iterations 97
time step continuity errors : sum local = 1.575e-09, global = 2.20975e-11, cumulative = -1.77547e-07
DICPCG:  Solving for p, Initial residual = 0.00128941, Final residual = 9.40659e-07, No Iterations 313
time step continuity errors : sum local = 6.77614e-12, global = 1.09943e-13, cumulative = -1.77547e-07
ExecutionTime = 28.82 s  ClockTime = 29 s

Time = 2.65

Courant Number mean: 0.0106182 max: 0.127842
smoothSolver:  Solving for Ux, Initial residual = 0.000881747, Final residual = 6.05585e-06, No Iterations 5
smoothSolver:  Solving for Uy, Initial residual = 0.00205207, Final residual = 7.12499e-06, No Iterations 4
DICPCG:  Solving for p, Initial residual = 0.00436025, Final residual = 0.000215034, No Iterations 96
time step continuity errors : sum local = 1.54318e-09, global = 2.02226e-11, cumulative = -1.77527e-07
DICPCG:  Solving for p, Initial residual = 0.00128117, Final residual = 9.75601e-07, No Iterations 313
time step continuity errors : sum local = 6.98742e-12, global = 1.17021e-13, cumulative = -1.77527e-07
ExecutionTime = 29.3 s  ClockTime = 29 s

Time = 2.7

Courant Number mean: 0.0106143 max: 0.127658
smoothSolver:  Solving for Ux, Initial residual = 0.000863436, Final residual = 5.89046e-06, No Iterations 5
smoothSolver:  Solving for Uy, Initial residual = 0.00202184, Final residual = 6.95499e-06, No Iterations 4
DICPCG:  Solving for p, Initial residual = 0.00430698, Final residual = 0.00021089, No Iterations 96
time step continuity errors : sum local = 1.50453e-09, global = 2.11979e-11, cumulative = -1.77505e-07
DICPCG:  Solving for p, Initial residual = 0.00126444, Final residual = 9.89309e-07, No Iterations 313
time step continuity errors : sum local = 7.04311e-12, global = 1.17855e-13, cumulative = -1.77505e-07
ExecutionTime = 29.78 s  ClockTime = 30 s

Time = 2.75

Courant Number mean: 0.0106105 max: 0.12747
smoothSolver:  Solving for Ux, Initial residual = 0.000845773, Final residual = 5.7326e-06, No Iterations 5
smoothSolver:  Solving for Uy, Initial residual = 0.00199229, Final residual = 6.79076e-06, No Iterations 4
DICPCG:  Solving for p, Initial residual = 0.00422574, Final residual = 0.000210709, No Iterations 84
time step continuity errors : sum local = 1.49431e-09, global = -1.3121e-11, cumulative = -1.77518e-07
DICPCG:  Solving for p, Initial residual = 0.00123086, Final residual = 9.42573e-07, No Iterations 313
time step continuity errors : sum local = 6.67118e-12, global = 9.54405e-14, cumulative = -1.77518e-07
ExecutionTime = 30.25 s  ClockTime = 30 s

Time = 2.8

Courant Number mean: 0.0106067 max: 0.127279
smoothSolver:  Solving for Ux, Initial residual = 0.000828648, Final residual = 5.58218e-06, No Iterations 5
smoothSolver:  Solving for Uy, Initial residual = 0.00196243, Final residual = 6.63117e-06, No Iterations 4
DICPCG:  Solving for p, Initial residual = 0.00416914, Final residual = 0.000204571, No Iterations 97
time step continuity errors : sum local = 1.4423e-09, global = 2.10087e-11, cumulative = -1.77497e-07
DICPCG:  Solving for p, Initial residual = 0.00121228, Final residual = 9.78929e-07, No Iterations 312
time step continuity errors : sum local = 6.88786e-12, global = 9.96606e-14, cumulative = -1.77497e-07
ExecutionTime = 30.74 s  ClockTime = 31 s

Time = 2.85

Courant Number mean: 0.010603 max: 0.127084
smoothSolver:  Solving for Ux, Initial residual = 0.000812295, Final residual = 5.43707e-06, No Iterations 5
smoothSolver:  Solving for Uy, Initial residual = 0.00193513, Final residual = 6.48054e-06, No Iterations 4
DICPCG:  Solving for p, Initial residual = 0.00412114, Final residual = 0.000202209, No Iterations 96
time step continuity errors : sum local = 1.41759e-09, global = 1.98205e-11, cumulative = -1.77477e-07
DICPCG:  Solving for p, Initial residual = 0.00120836, Final residual = 9.93286e-07, No Iterations 313
time step continuity errors : sum local = 6.94977e-12, global = 1.14973e-13, cumulative = -1.77477e-07
ExecutionTime = 31.22 s  ClockTime = 31 s

Time = 2.9

Courant Number mean: 0.0105993 max: 0.126886
smoothSolver:  Solving for Ux, Initial residual = 0.000796349, Final residual = 5.29824e-06, No Iterations 5
smoothSolver:  Solving for Uy, Initial residual = 0.00190754, Final residual = 6.33372e-06, No Iterations 4
DICPCG:  Solving for p, Initial residual = 0.00405595, Final residual = 0.000197805, No Iterations 96
time step continuity errors : sum local = 1.37889e-09, global = 1.96768e-11, cumulative = -1.77458e-07
DICPCG:  Solving for p, Initial residual = 0.00118756, Final residual = 9.62309e-07, No Iterations 313
time step continuity errors : sum local = 6.69513e-12, global = 1.1312e-13, cumulative = -1.77457e-07
ExecutionTime = 31.71 s  ClockTime = 32 s

Time = 2.95

Courant Number mean: 0.0105957 max: 0.126686
smoothSolver:  Solving for Ux, Initial residual = 0.000780931, Final residual = 5.16513e-06, No Iterations 5
smoothSolver:  Solving for Uy, Initial residual = 0.00188062, Final residual = 6.19336e-06, No Iterations 4
DICPCG:  Solving for p, Initial residual = 0.00398371, Final residual = 0.000194845, No Iterations 96
time step continuity errors : sum local = 1.35074e-09, global = 1.97575e-11, cumulative = -1.77438e-07
DICPCG:  Solving for p, Initial residual = 0.00116761, Final residual = 9.21317e-07, No Iterations 313
time step continuity errors : sum local = 6.37499e-12, global = 1.1074e-13, cumulative = -1.77438e-07
ExecutionTime = 32.19 s  ClockTime = 32 s

Time = 3

Courant Number mean: 0.0105921 max: 0.126483
smoothSolver:  Solving for Ux, Initial residual = 0.000766022, Final residual = 5.03737e-06, No Iterations 5
smoothSolver:  Solving for Uy, Initial residual = 0.00185426, Final residual = 6.05588e-06, No Iterations 4
DICPCG:  Solving for p, Initial residual = 0.0039717, Final residual = 0.000194337, No Iterations 96
time step continuity errors : sum local = 1.33992e-09, global = 1.933e-11, cumulative = -1.77418e-07
DICPCG:  Solving for p, Initial residual = 0.00116443, Final residual = 9.48063e-07, No Iterations 313
time step continuity errors : sum local = 6.52454e-12, global = 1.11689e-13, cumulative = -1.77418e-07
ExecutionTime = 33.12 s  ClockTime = 33 s

Time = 3.05

Courant Number mean: 0.0105886 max: 0.126277
smoothSolver:  Solving for Ux, Initial residual = 0.000751582, Final residual = 9.9622e-06, No Iterations 4
smoothSolver:  Solving for Uy, Initial residual = 0.00182849, Final residual = 5.92444e-06, No Iterations 4
DICPCG:  Solving for p, Initial residual = 0.00414958, Final residual = 0.000190603, No Iterations 100
time step continuity errors : sum local = 1.3071e-09, global = 9.90973e-11, cumulative = -1.77319e-07
DICPCG:  Solving for p, Initial residual = 0.0016818, Final residual = 9.73161e-07, No Iterations 314
time step continuity errors : sum local = 6.66093e-12, global = 9.84322e-14, cumulative = -1.77319e-07
ExecutionTime = 33.6 s  ClockTime = 34 s

Time = 3.1

Courant Number mean: 0.0105851 max: 0.12607
smoothSolver:  Solving for Ux, Initial residual = 0.00073486, Final residual = 9.78232e-06, No Iterations 4
smoothSolver:  Solving for Uy, Initial residual = 0.00179178, Final residual = 5.80836e-06, No Iterations 4
DICPCG:  Solving for p, Initial residual = 0.00406048, Final residual = 0.000192984, No Iterations 97
time step continuity errors : sum local = 1.31484e-09, global = 2.70895e-11, cumulative = -1.77292e-07
DICPCG:  Solving for p, Initial residual = 0.00155451, Final residual = 9.62242e-07, No Iterations 313
time step continuity errors : sum local = 6.54504e-12, global = 1.00603e-13, cumulative = -1.77292e-07
ExecutionTime = 34.08 s  ClockTime = 34 s

Time = 3.15

Courant Number mean: 0.0105817 max: 0.12586
smoothSolver:  Solving for Ux, Initial residual = 0.000722063, Final residual = 9.55738e-06, No Iterations 4
smoothSolver:  Solving for Uy, Initial residual = 0.00176961, Final residual = 5.67877e-06, No Iterations 4
DICPCG:  Solving for p, Initial residual = 0.00402577, Final residual = 0.00019368, No Iterations 97
time step continuity errors : sum local = 1.31313e-09, global = 4.19105e-11, cumulative = -1.7725e-07
DICPCG:  Solving for p, Initial residual = 0.00157141, Final residual = 9.91383e-07, No Iterations 313
time step continuity errors : sum local = 6.70942e-12, global = 9.67142e-14, cumulative = -1.7725e-07
ExecutionTime = 34.57 s  ClockTime = 34 s

Time = 3.2

Courant Number mean: 0.0105783 max: 0.125649
smoothSolver:  Solving for Ux, Initial residual = 0.000708992, Final residual = 9.34771e-06, No Iterations 4
smoothSolver:  Solving for Uy, Initial residual = 0.00174556, Final residual = 5.56023e-06, No Iterations 4
DICPCG:  Solving for p, Initial residual = 0.00397422, Final residual = 0.000189229, No Iterations 97
time step continuity errors : sum local = 1.27616e-09, global = 3.80509e-11, cumulative = -1.77212e-07
DICPCG:  Solving for p, Initial residual = 0.00154381, Final residual = 9.45734e-07, No Iterations 313
time step continuity errors : sum local = 6.36723e-12, global = 9.53003e-14, cumulative = -1.77212e-07
ExecutionTime = 35.04 s  ClockTime = 35 s

Time = 3.25

Courant Number mean: 0.010575 max: 0.125435
smoothSolver:  Solving for Ux, Initial residual = 0.000696439, Final residual = 9.14325e-06, No Iterations 4
smoothSolver:  Solving for Uy, Initial residual = 0.00172249, Final residual = 5.44538e-06, No Iterations 4
DICPCG:  Solving for p, Initial residual = 0.00392842, Final residual = 0.000186327, No Iterations 97
time step continuity errors : sum local = 1.25024e-09, global = 3.88893e-11, cumulative = -1.77173e-07
DICPCG:  Solving for p, Initial residual = 0.00152658, Final residual = 9.50735e-07, No Iterations 313
time step continuity errors : sum local = 6.36866e-12, global = 9.3137e-14, cumulative = -1.77173e-07
ExecutionTime = 35.52 s  ClockTime = 35 s

Time = 3.3

Courant Number mean: 0.0105716 max: 0.12522
smoothSolver:  Solving for Ux, Initial residual = 0.000684219, Final residual = 8.94586e-06, No Iterations 4
smoothSolver:  Solving for Uy, Initial residual = 0.00169984, Final residual = 5.334e-06, No Iterations 4
DICPCG:  Solving for p, Initial residual = 0.00390736, Final residual = 0.000186724, No Iterations 97
time step continuity errors : sum local = 1.24666e-09, global = 3.79538e-11, cumulative = -1.77135e-07
DICPCG:  Solving for p, Initial residual = 0.0015141, Final residual = 9.34178e-07, No Iterations 313
time step continuity errors : sum local = 6.22696e-12, global = 9.0569e-14, cumulative = -1.77135e-07
ExecutionTime = 36 s  ClockTime = 36 s

Time = 3.35

Courant Number mean: 0.0105684 max: 0.125003
smoothSolver:  Solving for Ux, Initial residual = 0.000672358, Final residual = 8.75487e-06, No Iterations 4
smoothSolver:  Solving for Uy, Initial residual = 0.00167766, Final residual = 5.22595e-06, No Iterations 4
DICPCG:  Solving for p, Initial residual = 0.0039012, Final residual = 0.000184449, No Iterations 97
time step continuity errors : sum local = 1.22542e-09, global = 3.7675e-11, cumulative = -1.77097e-07
DICPCG:  Solving for p, Initial residual = 0.00150496, Final residual = 9.12969e-07, No Iterations 313
time step continuity errors : sum local = 6.05562e-12, global = 8.71471e-14, cumulative = -1.77097e-07
ExecutionTime = 36.49 s  ClockTime = 36 s

Time = 3.4

Courant Number mean: 0.0105651 max: 0.124785
smoothSolver:  Solving for Ux, Initial residual = 0.000660827, Final residual = 8.56982e-06, No Iterations 4
smoothSolver:  Solving for Uy, Initial residual = 0.00165595, Final residual = 5.11977e-06, No Iterations 4
DICPCG:  Solving for p, Initial residual = 0.00381916, Final residual = 0.000182801, No Iterations 97
time step continuity errors : sum local = 1.2085e-09, global = 3.67224e-11, cumulative = -1.7706e-07
DICPCG:  Solving for p, Initial residual = 0.0014847, Final residual = 8.99455e-07, No Iterations 313
time step continuity errors : sum local = 5.93651e-12, global = 8.60204e-14, cumulative = -1.7706e-07
ExecutionTime = 36.97 s  ClockTime = 37 s

Time = 3.45

Courant Number mean: 0.0105619 max: 0.124566
smoothSolver:  Solving for Ux, Initial residual = 0.000649607, Final residual = 8.39091e-06, No Iterations 4
smoothSolver:  Solving for Uy, Initial residual = 0.00163463, Final residual = 5.01973e-06, No Iterations 4
DICPCG:  Solving for p, Initial residual = 0.00375202, Final residual = 0.000177291, No Iterations 97
time step continuity errors : sum local = 1.16636e-09, global = 3.61659e-11, cumulative = -1.77024e-07
DICPCG:  Solving for p, Initial residual = 0.00146127, Final residual = 8.86854e-07, No Iterations 313
time step continuity errors : sum local = 5.82514e-12, global = 8.35753e-14, cumulative = -1.77024e-07
ExecutionTime = 37.45 s  ClockTime = 37 s

Time = 3.5

Courant Number mean: 0.0105588 max: 0.124345
smoothSolver:  Solving for Ux, Initial residual = 0.000638703, Final residual = 8.2175e-06, No Iterations 4
smoothSolver:  Solving for Uy, Initial residual = 0.0016138, Final residual = 4.92189e-06, No Iterations 4
DICPCG:  Solving for p, Initial residual = 0.00370817, Final residual = 0.000175284, No Iterations 97
time step continuity errors : sum local = 1.14768e-09, global = 3.60385e-11, cumulative = -1.76988e-07
DICPCG:  Solving for p, Initial residual = 0.00144464, Final residual = 9.83231e-07, No Iterations 312
time step continuity errors : sum local = 6.4279e-12, global = 9.19515e-14, cumulative = -1.76988e-07
ExecutionTime = 38.37 s  ClockTime = 38 s

Time = 3.55

Courant Number mean: 0.0105556 max: 0.124123
smoothSolver:  Solving for Ux, Initial residual = 0.000628095, Final residual = 8.0496e-06, No Iterations 4
smoothSolver:  Solving for Uy, Initial residual = 0.00159335, Final residual = 4.8257e-06, No Iterations 4
DICPCG:  Solving for p, Initial residual = 0.00368869, Final residual = 0.000174594, No Iterations 97
time step continuity errors : sum local = 1.13785e-09, global = 3.54972e-11, cumulative = -1.76952e-07
DICPCG:  Solving for p, Initial residual = 0.00143381, Final residual = 9.72076e-07, No Iterations 312
time step continuity errors : sum local = 6.32558e-12, global = 8.95693e-14, cumulative = -1.76952e-07
ExecutionTime = 38.86 s  ClockTime = 39 s

Time = 3.6

Courant Number mean: 0.0105526 max: 0.1239
smoothSolver:  Solving for Ux, Initial residual = 0.000617773, Final residual = 7.88693e-06, No Iterations 4
smoothSolver:  Solving for Uy, Initial residual = 0.00157328, Final residual = 4.73255e-06, No Iterations 4
DICPCG:  Solving for p, Initial residual = 0.00366799, Final residual = 0.000175708, No Iterations 97
time step continuity errors : sum local = 1.1398e-09, global = 3.49665e-11, cumulative = -1.76917e-07
DICPCG:  Solving for p, Initial residual = 0.00142684, Final residual = 9.50253e-07, No Iterations 312
time step continuity errors : sum local = 6.15463e-12, global = 8.69719e-14, cumulative = -1.76917e-07
ExecutionTime = 39.34 s  ClockTime = 39 s

Time = 3.65

Courant Number mean: 0.0105495 max: 0.123677
smoothSolver:  Solving for Ux, Initial residual = 0.000607736, Final residual = 7.72908e-06, No Iterations 4
smoothSolver:  Solving for Uy, Initial residual = 0.00155377, Final residual = 4.64268e-06, No Iterations 4
DICPCG:  Solving for p, Initial residual = 0.00360308, Final residual = 0.000169135, No Iterations 97
time step continuity errors : sum local = 1.09211e-09, global = 3.48021e-11, cumulative = -1.76882e-07
DICPCG:  Solving for p, Initial residual = 0.00140413, Final residual = 9.37532e-07, No Iterations 312
time step continuity errors : sum local = 6.04469e-12, global = 8.55837e-14, cumulative = -1.76882e-07
ExecutionTime = 39.82 s  ClockTime = 40 s

Time = 3.7

Courant Number mean: 0.0105465 max: 0.123452
smoothSolver:  Solving for Ux, Initial residual = 0.000597955, Final residual = 7.57615e-06, No Iterations 4
smoothSolver:  Solving for Uy, Initial residual = 0.00153452, Final residual = 4.55509e-06, No Iterations 4
DICPCG:  Solving for p, Initial residual = 0.00357148, Final residual = 0.000166953, No Iterations 97
time step continuity errors : sum local = 1.07317e-09, global = 3.37262e-11, cumulative = -1.76848e-07
DICPCG:  Solving for p, Initial residual = 0.00139024, Final residual = 9.22093e-07, No Iterations 312
time step continuity errors : sum local = 5.91856e-12, global = 8.21686e-14, cumulative = -1.76848e-07
ExecutionTime = 40.29 s  ClockTime = 40 s

Time = 3.75

Courant Number mean: 0.0105435 max: 0.123227
smoothSolver:  Solving for Ux, Initial residual = 0.000588429, Final residual = 7.42778e-06, No Iterations 4
smoothSolver:  Solving for Uy, Initial residual = 0.00151569, Final residual = 4.4702e-06, No Iterations 4
DICPCG:  Solving for p, Initial residual = 0.00353485, Final residual = 0.000166065, No Iterations 97
time step continuity errors : sum local = 1.06272e-09, global = 3.33933e-11, cumulative = -1.76815e-07
DICPCG:  Solving for p, Initial residual = 0.00137713, Final residual = 9.07097e-07, No Iterations 312
time step continuity errors : sum local = 5.79649e-12, global = 8.11393e-14, cumulative = -1.76815e-07
ExecutionTime = 40.77 s  ClockTime = 41 s

Time = 3.8

Courant Number mean: 0.0105405 max: 0.123001
smoothSolver:  Solving for Ux, Initial residual = 0.000579146, Final residual = 7.28372e-06, No Iterations 4
smoothSolver:  Solving for Uy, Initial residual = 0.00149724, Final residual = 4.38811e-06, No Iterations 4
DICPCG:  Solving for p, Initial residual = 0.00351423, Final residual = 0.000164428, No Iterations 97
time step continuity errors : sum local = 1.04761e-09, global = 3.32014e-11, cumulative = -1.76782e-07
DICPCG:  Solving for p, Initial residual = 0.00136599, Final residual = 8.84643e-07, No Iterations 312
time step continuity errors : sum local = 5.62825e-12, global = 8.0533e-14, cumulative = -1.76781e-07
ExecutionTime = 41.25 s  ClockTime = 41 s

Time = 3.85

Courant Number mean: 0.0105375 max: 0.122775
smoothSolver:  Solving for Ux, Initial residual = 0.000570098, Final residual = 7.14385e-06, No Iterations 4
smoothSolver:  Solving for Uy, Initial residual = 0.00147912, Final residual = 9.92177e-06, No Iterations 3
DICPCG:  Solving for p, Initial residual = 0.00356342, Final residual = 0.000174202, No Iterations 100
time step continuity errors : sum local = 1.10507e-09, global = 3.68214e-11, cumulative = -1.76745e-07
DICPCG:  Solving for p, Initial residual = 0.0015127, Final residual = 9.95347e-07, No Iterations 315
time step continuity errors : sum local = 6.30526e-12, global = 9.59013e-14, cumulative = -1.76745e-07
ExecutionTime = 41.74 s  ClockTime = 42 s

Time = 3.9

Courant Number mean: 0.0105346 max: 0.122548
smoothSolver:  Solving for Ux, Initial residual = 0.00056104, Final residual = 7.00854e-06, No Iterations 4
smoothSolver:  Solving for Uy, Initial residual = 0.00146126, Final residual = 9.82815e-06, No Iterations 3
DICPCG:  Solving for p, Initial residual = 0.00350632, Final residual = 0.00016984, No Iterations 100
time step continuity errors : sum local = 1.07268e-09, global = 3.42335e-11, cumulative = -1.7671e-07
DICPCG:  Solving for p, Initial residual = 0.00147683, Final residual = 9.32842e-07, No Iterations 316
time step continuity errors : sum local = 5.88348e-12, global = 9.38088e-14, cumulative = -1.7671e-07
ExecutionTime = 42.23 s  ClockTime = 42 s

Time = 3.95

Courant Number mean: 0.0105317 max: 0.12232
smoothSolver:  Solving for Ux, Initial residual = 0.000552496, Final residual = 6.8767e-06, No Iterations 4
smoothSolver:  Solving for Uy, Initial residual = 0.0014439, Final residual = 9.65639e-06, No Iterations 3
DICPCG:  Solving for p, Initial residual = 0.00347324, Final residual = 0.000166153, No Iterations 100
time step continuity errors : sum local = 1.045e-09, global = 3.44179e-11, cumulative = -1.76676e-07
DICPCG:  Solving for p, Initial residual = 0.00145911, Final residual = 9.11198e-07, No Iterations 316
time step continuity errors : sum local = 5.72327e-12, global = 9.10783e-14, cumulative = -1.76676e-07
ExecutionTime = 42.71 s  ClockTime = 43 s

Time = 4

Courant Number mean: 0.0105289 max: 0.122093
smoothSolver:  Solving for Ux, Initial residual = 0.000544122, Final residual = 6.74855e-06, No Iterations 4
smoothSolver:  Solving for Uy, Initial residual = 0.0014268, Final residual = 9.49607e-06, No Iterations 3
DICPCG:  Solving for p, Initial residual = 0.00344043, Final residual = 0.000164927, No Iterations 100
time step continuity errors : sum local = 1.033e-09, global = 3.37489e-11, cumulative = -1.76642e-07
DICPCG:  Solving for p, Initial residual = 0.00144651, Final residual = 9.86816e-07, No Iterations 315
time step continuity errors : sum local = 6.17248e-12, global = 9.88848e-14, cumulative = -1.76642e-07
ExecutionTime = 43.65 s  ClockTime = 44 s

Time = 4.05

Courant Number mean: 0.0105261 max: 0.121865
smoothSolver:  Solving for Ux, Initial residual = 0.000535954, Final residual = 6.62388e-06, No Iterations 4
smoothSolver:  Solving for Uy, Initial residual = 0.00141008, Final residual = 9.33964e-06, No Iterations 3
DICPCG:  Solving for p, Initial residual = 0.0034159, Final residual = 0.000162755, No Iterations 100
time step continuity errors : sum local = 1.01521e-09, global = 3.34504e-11, cumulative = -1.76608e-07
DICPCG:  Solving for p, Initial residual = 0.00143271, Final residual = 9.21614e-07, No Iterations 316
time step continuity errors : sum local = 5.7412e-12, global = 9.03054e-14, cumulative = -1.76608e-07
ExecutionTime = 44.13 s  ClockTime = 44 s

Time = 4.1

Courant Number mean: 0.0105233 max: 0.121637
smoothSolver:  Solving for Ux, Initial residual = 0.000527984, Final residual = 6.50268e-06, No Iterations 4
smoothSolver:  Solving for Uy, Initial residual = 0.00139367, Final residual = 9.18625e-06, No Iterations 3
DICPCG:  Solving for p, Initial residual = 0.00340707, Final residual = 0.000162251, No Iterations 100
time step continuity errors : sum local = 1.00801e-09, global = 3.31659e-11, cumulative = -1.76575e-07
DICPCG:  Solving for p, Initial residual = 0.00142202, Final residual = 9.84423e-07, No Iterations 315
time step continuity errors : sum local = 6.10817e-12, global = 9.50557e-14, cumulative = -1.76575e-07
ExecutionTime = 44.61 s  ClockTime = 45 s

Time = 4.15

Courant Number mean: 0.0105205 max: 0.121409
smoothSolver:  Solving for Ux, Initial residual = 0.000520209, Final residual = 6.38491e-06, No Iterations 4
smoothSolver:  Solving for Uy, Initial residual = 0.00137753, Final residual = 9.03511e-06, No Iterations 3
DICPCG:  Solving for p, Initial residual = 0.00337833, Final residual = 0.000162543, No Iterations 100
time step continuity errors : sum local = 1.00579e-09, global = 3.26722e-11, cumulative = -1.76542e-07
DICPCG:  Solving for p, Initial residual = 0.00141489, Final residual = 9.81553e-07, No Iterations 315
time step continuity errors : sum local = 6.06574e-12, global = 9.76394e-14, cumulative = -1.76542e-07
ExecutionTime = 45.1 s  ClockTime = 45 s

Time = 4.2

Courant Number mean: 0.0105178 max: 0.12118
smoothSolver:  Solving for Ux, Initial residual = 0.000512612, Final residual = 6.27025e-06, No Iterations 4
smoothSolver:  Solving for Uy, Initial residual = 0.00136173, Final residual = 8.88964e-06, No Iterations 3
DICPCG:  Solving for p, Initial residual = 0.0033359, Final residual = 0.000159354, No Iterations 100
time step continuity errors : sum local = 9.82134e-10, global = 3.22159e-11, cumulative = -1.7651e-07
DICPCG:  Solving for p, Initial residual = 0.00139611, Final residual = 9.62957e-07, No Iterations 315
time step continuity errors : sum local = 5.9275e-12, global = 9.37364e-14, cumulative = -1.7651e-07
ExecutionTime = 45.61 s  ClockTime = 46 s

Time = 4.25

Courant Number mean: 0.010515 max: 0.120952
smoothSolver:  Solving for Ux, Initial residual = 0.000505197, Final residual = 6.15853e-06, No Iterations 4
smoothSolver:  Solving for Uy, Initial residual = 0.00134622, Final residual = 8.74715e-06, No Iterations 3
DICPCG:  Solving for p, Initial residual = 0.00329498, Final residual = 0.000156901, No Iterations 100
time step continuity errors : sum local = 9.63295e-10, global = 3.2011e-11, cumulative = -1.76478e-07
DICPCG:  Solving for p, Initial residual = 0.00138057, Final residual = 9.51096e-07, No Iterations 315
time step continuity errors : sum local = 5.83232e-12, global = 9.24749e-14, cumulative = -1.76478e-07
ExecutionTime = 46.1 s  ClockTime = 46 s

Time = 4.3

Courant Number mean: 0.0105124 max: 0.120723
smoothSolver:  Solving for Ux, Initial residual = 0.000497958, Final residual = 6.04986e-06, No Iterations 4
smoothSolver:  Solving for Uy, Initial residual = 0.00133094, Final residual = 8.60734e-06, No Iterations 3
DICPCG:  Solving for p, Initial residual = 0.00328699, Final residual = 0.000155654, No Iterations 100
time step continuity errors : sum local = 9.52025e-10, global = 3.15969e-11, cumulative = -1.76446e-07
DICPCG:  Solving for p, Initial residual = 0.00137373, Final residual = 9.47742e-07, No Iterations 315
time step continuity errors : sum local = 5.78965e-12, global = 9.12455e-14, cumulative = -1.76446e-07
ExecutionTime = 46.59 s  ClockTime = 47 s

Time = 4.35

Courant Number mean: 0.0105097 max: 0.120495
smoothSolver:  Solving for Ux, Initial residual = 0.000490884, Final residual = 5.94382e-06, No Iterations 4
smoothSolver:  Solving for Uy, Initial residual = 0.00131598, Final residual = 8.47097e-06, No Iterations 3
DICPCG:  Solving for p, Initial residual = 0.00324146, Final residual = 0.000154366, No Iterations 100
time step continuity errors : sum local = 9.40593e-10, global = 3.11726e-11, cumulative = -1.76415e-07
DICPCG:  Solving for p, Initial residual = 0.0013583, Final residual = 9.97536e-07, No Iterations 314
time step continuity errors : sum local = 6.07107e-12, global = 9.52159e-14, cumulative = -1.76415e-07
ExecutionTime = 47.09 s  ClockTime = 47 s

Time = 4.4

Courant Number mean: 0.0105071 max: 0.120267
smoothSolver:  Solving for Ux, Initial residual = 0.000483971, Final residual = 5.84071e-06, No Iterations 4
smoothSolver:  Solving for Uy, Initial residual = 0.00130127, Final residual = 8.33983e-06, No Iterations 3
DICPCG:  Solving for p, Initial residual = 0.00320448, Final residual = 0.000152826, No Iterations 100
time step continuity errors : sum local = 9.27768e-10, global = 3.0683e-11, cumulative = -1.76384e-07
DICPCG:  Solving for p, Initial residual = 0.00134337, Final residual = 9.73977e-07, No Iterations 314
time step continuity errors : sum local = 5.90601e-12, global = 9.39016e-14, cumulative = -1.76384e-07
ExecutionTime = 47.56 s  ClockTime = 47 s

Time = 4.45

Courant Number mean: 0.0105045 max: 0.120039
smoothSolver:  Solving for Ux, Initial residual = 0.000477219, Final residual = 5.74006e-06, No Iterations 4
smoothSolver:  Solving for Uy, Initial residual = 0.00128682, Final residual = 8.2107e-06, No Iterations 3
DICPCG:  Solving for p, Initial residual = 0.00322353, Final residual = 0.000153852, No Iterations 100
time step continuity errors : sum local = 9.30603e-10, global = 3.04698e-11, cumulative = -1.76354e-07
DICPCG:  Solving for p, Initial residual = 0.00133798, Final residual = 9.58243e-07, No Iterations 315
time step continuity errors : sum local = 5.7895e-12, global = 9.04255e-14, cumulative = -1.76354e-07
ExecutionTime = 48.04 s  ClockTime = 48 s

Time = 4.5

Courant Number mean: 0.0105019 max: 0.119811
smoothSolver:  Solving for Ux, Initial residual = 0.000470619, Final residual = 5.64218e-06, No Iterations 4
smoothSolver:  Solving for Uy, Initial residual = 0.00127257, Final residual = 8.08531e-06, No Iterations 3
DICPCG:  Solving for p, Initial residual = 0.00318679, Final residual = 0.000151163, No Iterations 100
time step continuity errors : sum local = 9.11035e-10, global = 2.98027e-11, cumulative = -1.76324e-07
DICPCG:  Solving for p, Initial residual = 0.00132528, Final residual = 9.78118e-07, No Iterations 314
time step continuity errors : sum local = 5.88838e-12, global = 9.20241e-14, cumulative = -1.76324e-07
ExecutionTime = 48.96 s  ClockTime = 49 s

Time = 4.55

Courant Number mean: 0.0104993 max: 0.119583
smoothSolver:  Solving for Ux, Initial residual = 0.000464164, Final residual = 5.5463e-06, No Iterations 4
smoothSolver:  Solving for Uy, Initial residual = 0.00125864, Final residual = 7.96184e-06, No Iterations 3
DICPCG:  Solving for p, Initial residual = 0.00312935, Final residual = 0.000149673, No Iterations 100
time step continuity errors : sum local = 8.98878e-10, global = 2.98893e-11, cumulative = -1.76294e-07
DICPCG:  Solving for p, Initial residual = 0.00130691, Final residual = 9.99926e-07, No Iterations 313
time step continuity errors : sum local = 5.99874e-12, global = 9.18801e-14, cumulative = -1.76294e-07
ExecutionTime = 49.43 s  ClockTime = 49 s

Time = 4.6

Courant Number mean: 0.0104968 max: 0.119355
smoothSolver:  Solving for Ux, Initial residual = 0.000457857, Final residual = 5.4532e-06, No Iterations 4
smoothSolver:  Solving for Uy, Initial residual = 0.00124487, Final residual = 7.84126e-06, No Iterations 3
DICPCG:  Solving for p, Initial residual = 0.00312131, Final residual = 0.000150391, No Iterations 100
time step continuity errors : sum local = 9.00026e-10, global = 2.91163e-11, cumulative = -1.76265e-07
DICPCG:  Solving for p, Initial residual = 0.00129908, Final residual = 9.52121e-07, No Iterations 314
time step continuity errors : sum local = 5.69169e-12, global = 8.97506e-14, cumulative = -1.76265e-07
ExecutionTime = 49.91 s  ClockTime = 50 s

Time = 4.65

Courant Number mean: 0.0104943 max: 0.119128
smoothSolver:  Solving for Ux, Initial residual = 0.00045168, Final residual = 5.36209e-06, No Iterations 4
smoothSolver:  Solving for Uy, Initial residual = 0.00123151, Final residual = 7.7228e-06, No Iterations 3
DICPCG:  Solving for p, Initial residual = 0.0030684, Final residual = 0.00014577, No Iterations 100
time step continuity errors : sum local = 8.69362e-10, global = 2.90579e-11, cumulative = -1.76235e-07
DICPCG:  Solving for p, Initial residual = 0.00128161, Final residual = 9.96044e-07, No Iterations 313
time step continuity errors : sum local = 5.93422e-12, global = 8.95557e-14, cumulative = -1.76235e-07
ExecutionTime = 50.4 s  ClockTime = 50 s

Time = 4.7

Courant Number mean: 0.0104918 max: 0.118901
smoothSolver:  Solving for Ux, Initial residual = 0.00044564, Final residual = 5.27328e-06, No Iterations 4
smoothSolver:  Solving for Uy, Initial residual = 0.00121824, Final residual = 7.60717e-06, No Iterations 3
DICPCG:  Solving for p, Initial residual = 0.00303734, Final residual = 0.000144675, No Iterations 100
time step continuity errors : sum local = 8.5994e-10, global = 2.8738e-11, cumulative = -1.76207e-07
DICPCG:  Solving for p, Initial residual = 0.00127148, Final residual = 9.38914e-07, No Iterations 314
time step continuity errors : sum local = 5.57513e-12, global = 8.85306e-14, cumulative = -1.76207e-07
ExecutionTime = 50.87 s  ClockTime = 51 s

Time = 4.75

Courant Number mean: 0.0104893 max: 0.118675
smoothSolver:  Solving for Ux, Initial residual = 0.000439737, Final residual = 5.18668e-06, No Iterations 4
smoothSolver:  Solving for Uy, Initial residual = 0.0012052, Final residual = 7.49467e-06, No Iterations 3
DICPCG:  Solving for p, Initial residual = 0.0030092, Final residual = 0.000142033, No Iterations 100
time step continuity errors : sum local = 8.41433e-10, global = 2.83756e-11, cumulative = -1.76178e-07
DICPCG:  Solving for p, Initial residual = 0.00125745, Final residual = 9.89965e-07, No Iterations 313
time step continuity errors : sum local = 5.85886e-12, global = 8.73478e-14, cumulative = -1.76178e-07
ExecutionTime = 51.34 s  ClockTime = 51 s

Time = 4.8

Courant Number mean: 0.0104868 max: 0.118449
smoothSolver:  Solving for Ux, Initial residual = 0.000433957, Final residual = 5.10208e-06, No Iterations 4
smoothSolver:  Solving for Uy, Initial residual = 0.0011924, Final residual = 7.38542e-06, No Iterations 3
DICPCG:  Solving for p, Initial residual = 0.00297545, Final residual = 0.000140687, No Iterations 100
time step continuity errors : sum local = 8.30742e-10, global = 2.81387e-11, cumulative = -1.7615e-07
DICPCG:  Solving for p, Initial residual = 0.00124317, Final residual = 9.85709e-07, No Iterations 313
time step continuity errors : sum local = 5.81479e-12, global = 8.67563e-14, cumulative = -1.7615e-07
ExecutionTime = 51.81 s  ClockTime = 52 s

Time = 4.85

Courant Number mean: 0.0104844 max: 0.118223
smoothSolver:  Solving for Ux, Initial residual = 0.0004283, Final residual = 5.01953e-06, No Iterations 4
smoothSolver:  Solving for Uy, Initial residual = 0.0011798, Final residual = 7.27721e-06, No Iterations 3
DICPCG:  Solving for p, Initial residual = 0.00297238, Final residual = 0.000141087, No Iterations 100
time step continuity errors : sum local = 8.30448e-10, global = 2.77386e-11, cumulative = -1.76122e-07
DICPCG:  Solving for p, Initial residual = 0.00123898, Final residual = 9.42161e-07, No Iterations 313
time step continuity errors : sum local = 5.5404e-12, global = 8.63557e-14, cumulative = -1.76122e-07
ExecutionTime = 52.29 s  ClockTime = 52 s

Time = 4.9

Courant Number mean: 0.010482 max: 0.117997
smoothSolver:  Solving for Ux, Initial residual = 0.000422763, Final residual = 4.93886e-06, No Iterations 4
smoothSolver:  Solving for Uy, Initial residual = 0.00116742, Final residual = 7.17236e-06, No Iterations 3
DICPCG:  Solving for p, Initial residual = 0.00296925, Final residual = 0.000140207, No Iterations 100
time step continuity errors : sum local = 8.22681e-10, global = 2.71364e-11, cumulative = -1.76095e-07
DICPCG:  Solving for p, Initial residual = 0.00123247, Final residual = 9.29752e-07, No Iterations 313
time step continuity errors : sum local = 5.45033e-12, global = 8.36421e-14, cumulative = -1.76095e-07
ExecutionTime = 52.77 s  ClockTime = 53 s

Time = 4.95

Courant Number mean: 0.0104796 max: 0.117772
smoothSolver:  Solving for Ux, Initial residual = 0.000417339, Final residual = 4.8599e-06, No Iterations 4
smoothSolver:  Solving for Uy, Initial residual = 0.0011553, Final residual = 7.06999e-06, No Iterations 3
DICPCG:  Solving for p, Initial residual = 0.00291228, Final residual = 0.000137866, No Iterations 100
time step continuity errors : sum local = 8.06423e-10, global = 2.72763e-11, cumulative = -1.76068e-07
DICPCG:  Solving for p, Initial residual = 0.0012133, Final residual = 9.85658e-07, No Iterations 312
time step continuity errors : sum local = 5.75999e-12, global = 8.5076e-14, cumulative = -1.76067e-07
ExecutionTime = 53.24 s  ClockTime = 53 s

Time = 5

Courant Number mean: 0.0104773 max: 0.117548
smoothSolver:  Solving for Ux, Initial residual = 0.000412031, Final residual = 4.78294e-06, No Iterations 4
smoothSolver:  Solving for Uy, Initial residual = 0.00114329, Final residual = 6.97036e-06, No Iterations 3
DICPCG:  Solving for p, Initial residual = 0.002921, Final residual = 0.000137814, No Iterations 100
time step continuity errors : sum local = 8.03606e-10, global = 2.6801e-11, cumulative = -1.76041e-07
DICPCG:  Solving for p, Initial residual = 0.00121079, Final residual = 9.53225e-07, No Iterations 313
time step continuity errors : sum local = 5.55312e-12, global = 8.38338e-14, cumulative = -1.76041e-07
ExecutionTime = 54.15 s  ClockTime = 54 s

Time = 5.05

Courant Number mean: 0.0104749 max: 0.117324
smoothSolver:  Solving for Ux, Initial residual = 0.000406836, Final residual = 4.70775e-06, No Iterations 4
smoothSolver:  Solving for Uy, Initial residual = 0.00113148, Final residual = 6.87148e-06, No Iterations 3
DICPCG:  Solving for p, Initial residual = 0.00286524, Final residual = 0.000136985, No Iterations 100
time step continuity errors : sum local = 7.96313e-10, global = 2.64605e-11, cumulative = -1.76014e-07
DICPCG:  Solving for p, Initial residual = 0.00119493, Final residual = 9.4718e-07, No Iterations 313
time step continuity errors : sum local = 5.50099e-12, global = 8.32177e-14, cumulative = -1.76014e-07
ExecutionTime = 54.62 s  ClockTime = 55 s

Time = 5.1

Courant Number mean: 0.0104726 max: 0.1171
smoothSolver:  Solving for Ux, Initial residual = 0.000401743, Final residual = 9.93451e-06, No Iterations 3
smoothSolver:  Solving for Uy, Initial residual = 0.00111988, Final residual = 6.77575e-06, No Iterations 3
DICPCG:  Solving for p, Initial residual = 0.0033014, Final residual = 0.000161629, No Iterations 101
time step continuity errors : sum local = 9.3672e-10, global = 1.15235e-10, cumulative = -1.75899e-07
DICPCG:  Solving for p, Initial residual = 0.00200813, Final residual = 9.05724e-07, No Iterations 314
time step continuity errors : sum local = 5.2438e-12, global = 7.75795e-14, cumulative = -1.75899e-07
ExecutionTime = 55.1 s  ClockTime = 55 s

Time = 5.15

Courant Number mean: 0.0104704 max: 0.116881
smoothSolver:  Solving for Ux, Initial residual = 0.000394206, Final residual = 9.87812e-06, No Iterations 3
smoothSolver:  Solving for Uy, Initial residual = 0.00109612, Final residual = 6.70658e-06, No Iterations 3
DICPCG:  Solving for p, Initial residual = 0.00322132, Final residual = 0.000156366, No Iterations 98
time step continuity errors : sum local = 9.01955e-10, global = 3.50503e-11, cumulative = -1.75864e-07
DICPCG:  Solving for p, Initial residual = 0.00184832, Final residual = 9.64881e-07, No Iterations 233
time step continuity errors : sum local = 5.56212e-12, global = -1.36244e-13, cumulative = -1.75864e-07
ExecutionTime = 55.49 s  ClockTime = 55 s

Time = 5.2

Courant Number mean: 0.0104681 max: 0.116661
smoothSolver:  Solving for Ux, Initial residual = 0.000389914, Final residual = 9.72608e-06, No Iterations 3
smoothSolver:  Solving for Uy, Initial residual = 0.00108729, Final residual = 6.60318e-06, No Iterations 3
DICPCG:  Solving for p, Initial residual = 0.00323398, Final residual = 0.000158326, No Iterations 98
time step continuity errors : sum local = 9.11152e-10, global = 5.19971e-11, cumulative = -1.75812e-07
DICPCG:  Solving for p, Initial residual = 0.00186492, Final residual = 9.6571e-07, No Iterations 312
time step continuity errors : sum local = 5.55316e-12, global = 8.39248e-14, cumulative = -1.75812e-07
ExecutionTime = 55.95 s  ClockTime = 56 s

Time = 5.25

Courant Number mean: 0.0104659 max: 0.116442
smoothSolver:  Solving for Ux, Initial residual = 0.000385156, Final residual = 9.59123e-06, No Iterations 3
smoothSolver:  Solving for Uy, Initial residual = 0.00107619, Final residual = 6.51437e-06, No Iterations 3
DICPCG:  Solving for p, Initial residual = 0.00318575, Final residual = 0.000155437, No Iterations 98
time step continuity errors : sum local = 8.9194e-10, global = 4.71118e-11, cumulative = -1.75765e-07
DICPCG:  Solving for p, Initial residual = 0.00184397, Final residual = 9.34742e-07, No Iterations 312
time step continuity errors : sum local = 5.36004e-12, global = 8.49023e-14, cumulative = -1.75765e-07
ExecutionTime = 56.41 s  ClockTime = 56 s

Time = 5.3

Courant Number mean: 0.0104637 max: 0.116223
smoothSolver:  Solving for Ux, Initial residual = 0.000380599, Final residual = 9.45562e-06, No Iterations 3
smoothSolver:  Solving for Uy, Initial residual = 0.00106575, Final residual = 6.42632e-06, No Iterations 3
DICPCG:  Solving for p, Initial residual = 0.00317033, Final residual = 0.000156164, No Iterations 98
time step continuity errors : sum local = 8.9369e-10, global = 4.74676e-11, cumulative = -1.75717e-07
DICPCG:  Solving for p, Initial residual = 0.00183236, Final residual = 9.30845e-07, No Iterations 312
time step continuity errors : sum local = 5.32311e-12, global = 8.44249e-14, cumulative = -1.75717e-07
ExecutionTime = 56.88 s  ClockTime = 57 s

Time = 5.35

Courant Number mean: 0.0104615 max: 0.116005
smoothSolver:  Solving for Ux, Initial residual = 0.000376106, Final residual = 9.32291e-06, No Iterations 3
smoothSolver:  Solving for Uy, Initial residual = 0.00105543, Final residual = 6.34277e-06, No Iterations 3
DICPCG:  Solving for p, Initial residual = 0.00314869, Final residual = 0.00015555, No Iterations 98
time step continuity errors : sum local = 8.87756e-10, global = 4.67517e-11, cumulative = -1.7567e-07
DICPCG:  Solving for p, Initial residual = 0.00181803, Final residual = 9.20646e-07, No Iterations 312
time step continuity errors : sum local = 5.25061e-12, global = 8.20447e-14, cumulative = -1.7567e-07
ExecutionTime = 57.34 s  ClockTime = 57 s

Time = 5.4

Courant Number mean: 0.0104593 max: 0.115787
smoothSolver:  Solving for Ux, Initial residual = 0.000371704, Final residual = 9.19226e-06, No Iterations 3
smoothSolver:  Solving for Uy, Initial residual = 0.00104532, Final residual = 6.25922e-06, No Iterations 3
DICPCG:  Solving for p, Initial residual = 0.00308555, Final residual = 0.000149916, No Iterations 98
time step continuity errors : sum local = 8.53355e-10, global = 4.67497e-11, cumulative = -1.75623e-07
DICPCG:  Solving for p, Initial residual = 0.00179726, Final residual = 9.11023e-07, No Iterations 312
time step continuity errors : sum local = 5.18229e-12, global = 8.13623e-14, cumulative = -1.75623e-07
ExecutionTime = 57.81 s  ClockTime = 58 s

Time = 5.45

Courant Number mean: 0.0104572 max: 0.115569
smoothSolver:  Solving for Ux, Initial residual = 0.000367387, Final residual = 9.06411e-06, No Iterations 3
smoothSolver:  Solving for Uy, Initial residual = 0.00103527, Final residual = 6.17755e-06, No Iterations 3
DICPCG:  Solving for p, Initial residual = 0.00306103, Final residual = 0.000150038, No Iterations 98
[...]
time step continuity errors : sum local = 3.94827e-12, global = 1.05723e-15, cumulative = -1.55669e-07
ExecutionTime = 381.13 s  ClockTime = 382 s

Time = 38.7

Courant Number mean: 0.0099914 max: 0.0750162
smoothSolver:  Solving for Ux, Initial residual = 4.51442e-05, Final residual = 3.53017e-06, No Iterations 1
smoothSolver:  Solving for Uy, Initial residual = 0.000159135, Final residual = 5.55071e-06, No Iterations 1
DICPCG:  Solving for p, Initial residual = 0.00100772, Final residual = 4.88284e-05, No Iterations 86
time step continuity errors : sum local = 2.05711e-10, global = 1.79646e-11, cumulative = -1.55651e-07
DICPCG:  Solving for p, Initial residual = 0.00098572, Final residual = 9.35898e-07, No Iterations 295
time step continuity errors : sum local = 3.94276e-12, global = 9.8998e-16, cumulative = -1.55651e-07
ExecutionTime = 381.56 s  ClockTime = 383 s

Time = 38.75

Courant Number mean: 0.00999105 max: 0.0750156
smoothSolver:  Solving for Ux, Initial residual = 4.50982e-05, Final residual = 3.52441e-06, No Iterations 1
smoothSolver:  Solving for Uy, Initial residual = 0.000158977, Final residual = 5.54152e-06, No Iterations 1
DICPCG:  Solving for p, Initial residual = 0.00100674, Final residual = 4.87198e-05, No Iterations 86
time step continuity errors : sum local = 2.0523e-10, global = 1.7949e-11, cumulative = -1.55633e-07
DICPCG:  Solving for p, Initial residual = 0.000984266, Final residual = 9.4464e-07, No Iterations 295
time step continuity errors : sum local = 3.97912e-12, global = 1.1018e-15, cumulative = -1.55633e-07
ExecutionTime = 381.99 s  ClockTime = 383 s

Time = 38.8

Courant Number mean: 0.00999071 max: 0.075015
smoothSolver:  Solving for Ux, Initial residual = 4.50524e-05, Final residual = 3.51867e-06, No Iterations 1
smoothSolver:  Solving for Uy, Initial residual = 0.000158819, Final residual = 5.53233e-06, No Iterations 1
DICPCG:  Solving for p, Initial residual = 0.0010051, Final residual = 4.86734e-05, No Iterations 86
time step continuity errors : sum local = 2.0501e-10, global = 1.79268e-11, cumulative = -1.55615e-07
DICPCG:  Solving for p, Initial residual = 0.000982967, Final residual = 9.31878e-07, No Iterations 295
time step continuity errors : sum local = 3.9249e-12, global = 1.30019e-15, cumulative = -1.55615e-07
ExecutionTime = 382.41 s  ClockTime = 383 s

Time = 38.85

Courant Number mean: 0.00999037 max: 0.0750144
smoothSolver:  Solving for Ux, Initial residual = 4.50066e-05, Final residual = 3.51294e-06, No Iterations 1
smoothSolver:  Solving for Uy, Initial residual = 0.000158661, Final residual = 5.52323e-06, No Iterations 1
DICPCG:  Solving for p, Initial residual = 0.00100429, Final residual = 4.86195e-05, No Iterations 86
time step continuity errors : sum local = 2.04759e-10, global = 1.78922e-11, cumulative = -1.55597e-07
DICPCG:  Solving for p, Initial residual = 0.000981713, Final residual = 9.47182e-07, No Iterations 295
time step continuity errors : sum local = 3.98888e-12, global = 1.02885e-15, cumulative = -1.55597e-07
ExecutionTime = 382.85 s  ClockTime = 384 s

Time = 38.9

Courant Number mean: 0.00999002 max: 0.0750138
smoothSolver:  Solving for Ux, Initial residual = 4.49609e-05, Final residual = 3.50723e-06, No Iterations 1
smoothSolver:  Solving for Uy, Initial residual = 0.000158505, Final residual = 5.51435e-06, No Iterations 1
DICPCG:  Solving for p, Initial residual = 0.00100219, Final residual = 4.84575e-05, No Iterations 86
time step continuity errors : sum local = 2.04052e-10, global = 1.78879e-11, cumulative = -1.5558e-07
DICPCG:  Solving for p, Initial residual = 0.000980251, Final residual = 9.98942e-07, No Iterations 294
time step continuity errors : sum local = 4.20636e-12, global = -4.03416e-15, cumulative = -1.5558e-07
ExecutionTime = 383.27 s  ClockTime = 384 s

Time = 38.95

Courant Number mean: 0.00998968 max: 0.0750132
smoothSolver:  Solving for Ux, Initial residual = 4.49153e-05, Final residual = 3.50153e-06, No Iterations 1
smoothSolver:  Solving for Uy, Initial residual = 0.000158348, Final residual = 5.50532e-06, No Iterations 1
DICPCG:  Solving for p, Initial residual = 0.0010007, Final residual = 4.83895e-05, No Iterations 86
time step continuity errors : sum local = 2.03742e-10, global = 1.7867e-11, cumulative = -1.55562e-07
DICPCG:  Solving for p, Initial residual = 0.000978914, Final residual = 9.4738e-07, No Iterations 295
time step continuity errors : sum local = 3.98876e-12, global = 1.15545e-15, cumulative = -1.55562e-07
ExecutionTime = 383.7 s  ClockTime = 385 s

Time = 39

Courant Number mean: 0.00998934 max: 0.0750127
smoothSolver:  Solving for Ux, Initial residual = 4.48698e-05, Final residual = 3.49586e-06, No Iterations 1
smoothSolver:  Solving for Uy, Initial residual = 0.000158191, Final residual = 5.49627e-06, No Iterations 1
DICPCG:  Solving for p, Initial residual = 0.000999336, Final residual = 4.82751e-05, No Iterations 86
time step continuity errors : sum local = 2.03236e-10, global = 1.78577e-11, cumulative = -1.55544e-07
DICPCG:  Solving for p, Initial residual = 0.000977536, Final residual = 9.42222e-07, No Iterations 295
time step continuity errors : sum local = 3.96658e-12, global = 1.05276e-15, cumulative = -1.55544e-07
ExecutionTime = 384.57 s  ClockTime = 386 s

Time = 39.05

Courant Number mean: 0.00998899 max: 0.0750121
smoothSolver:  Solving for Ux, Initial residual = 4.48244e-05, Final residual = 3.4902e-06, No Iterations 1
smoothSolver:  Solving for Uy, Initial residual = 0.000158034, Final residual = 5.48728e-06, No Iterations 1
DICPCG:  Solving for p, Initial residual = 0.00100053, Final residual = 4.84736e-05, No Iterations 86
time step continuity errors : sum local = 2.04047e-10, global = 1.78133e-11, cumulative = -1.55526e-07
DICPCG:  Solving for p, Initial residual = 0.000976312, Final residual = 9.44874e-07, No Iterations 295
time step continuity errors : sum local = 3.97726e-12, global = 7.63049e-16, cumulative = -1.55526e-07
ExecutionTime = 384.99 s  ClockTime = 386 s

Time = 39.1

Courant Number mean: 0.00998865 max: 0.0750115
smoothSolver:  Solving for Ux, Initial residual = 4.47791e-05, Final residual = 3.48454e-06, No Iterations 1
smoothSolver:  Solving for Uy, Initial residual = 0.00015788, Final residual = 5.47858e-06, No Iterations 1
DICPCG:  Solving for p, Initial residual = 0.000997252, Final residual = 4.8174e-05, No Iterations 86
time step continuity errors : sum local = 2.02762e-10, global = 1.78245e-11, cumulative = -1.55508e-07
DICPCG:  Solving for p, Initial residual = 0.000974835, Final residual = 9.43894e-07, No Iterations 295
time step continuity errors : sum local = 3.97266e-12, global = 6.29696e-16, cumulative = -1.55508e-07
ExecutionTime = 385.42 s  ClockTime = 386 s

Time = 39.15

Courant Number mean: 0.00998831 max: 0.0750109
smoothSolver:  Solving for Ux, Initial residual = 4.47339e-05, Final residual = 3.47891e-06, No Iterations 1
smoothSolver:  Solving for Uy, Initial residual = 0.000157723, Final residual = 5.46954e-06, No Iterations 1
DICPCG:  Solving for p, Initial residual = 0.000995663, Final residual = 4.80939e-05, No Iterations 86
time step continuity errors : sum local = 2.024e-10, global = 1.78061e-11, cumulative = -1.5549e-07
DICPCG:  Solving for p, Initial residual = 0.000973505, Final residual = 9.30124e-07, No Iterations 295
time step continuity errors : sum local = 3.91424e-12, global = 1.15939e-15, cumulative = -1.5549e-07
ExecutionTime = 385.85 s  ClockTime = 387 s

Time = 39.2

Courant Number mean: 0.00998797 max: 0.0750103
smoothSolver:  Solving for Ux, Initial residual = 4.46889e-05, Final residual = 3.47329e-06, No Iterations 1
smoothSolver:  Solving for Uy, Initial residual = 0.000157567, Final residual = 5.46059e-06, No Iterations 1
DICPCG:  Solving for p, Initial residual = 0.000994282, Final residual = 4.80384e-05, No Iterations 86
time step continuity errors : sum local = 2.02143e-10, global = 1.77887e-11, cumulative = -1.55473e-07
DICPCG:  Solving for p, Initial residual = 0.000972149, Final residual = 9.49418e-07, No Iterations 295
time step continuity errors : sum local = 3.99496e-12, global = 7.19848e-16, cumulative = -1.55473e-07
ExecutionTime = 386.28 s  ClockTime = 387 s

Time = 39.25

Courant Number mean: 0.00998763 max: 0.0750097
smoothSolver:  Solving for Ux, Initial residual = 4.46439e-05, Final residual = 3.46769e-06, No Iterations 1
smoothSolver:  Solving for Uy, Initial residual = 0.000157412, Final residual = 5.45166e-06, No Iterations 1
DICPCG:  Solving for p, Initial residual = 0.000992934, Final residual = 4.79171e-05, No Iterations 86
time step continuity errors : sum local = 2.01609e-10, global = 1.77701e-11, cumulative = -1.55455e-07
DICPCG:  Solving for p, Initial residual = 0.000970818, Final residual = 9.41585e-07, No Iterations 295
time step continuity errors : sum local = 3.96154e-12, global = 5.56076e-16, cumulative = -1.55455e-07
ExecutionTime = 386.71 s  ClockTime = 388 s

Time = 39.3

Courant Number mean: 0.00998729 max: 0.0750092
smoothSolver:  Solving for Ux, Initial residual = 4.4599e-05, Final residual = 3.46211e-06, No Iterations 1
smoothSolver:  Solving for Uy, Initial residual = 0.000157257, Final residual = 5.44276e-06, No Iterations 1
DICPCG:  Solving for p, Initial residual = 0.00099162, Final residual = 4.78416e-05, No Iterations 86
time step continuity errors : sum local = 2.01268e-10, global = 1.77525e-11, cumulative = -1.55437e-07
DICPCG:  Solving for p, Initial residual = 0.000969503, Final residual = 9.4556e-07, No Iterations 295
time step continuity errors : sum local = 3.9778e-12, global = 4.27822e-16, cumulative = -1.55437e-07
ExecutionTime = 387.14 s  ClockTime = 388 s

Time = 39.35

Courant Number mean: 0.00998695 max: 0.0750086
smoothSolver:  Solving for Ux, Initial residual = 4.45542e-05, Final residual = 3.45654e-06, No Iterations 1
smoothSolver:  Solving for Uy, Initial residual = 0.000157102, Final residual = 5.43389e-06, No Iterations 1
DICPCG:  Solving for p, Initial residual = 0.000990329, Final residual = 4.77242e-05, No Iterations 86
time step continuity errors : sum local = 2.00751e-10, global = 1.7735e-11, cumulative = -1.55419e-07
DICPCG:  Solving for p, Initial residual = 0.000968141, Final residual = 9.47351e-07, No Iterations 295
time step continuity errors : sum local = 3.98487e-12, global = 4.06888e-16, cumulative = -1.55419e-07
ExecutionTime = 387.58 s  ClockTime = 389 s

Time = 39.4

Courant Number mean: 0.00998661 max: 0.075008
smoothSolver:  Solving for Ux, Initial residual = 4.45095e-05, Final residual = 3.45099e-06, No Iterations 1
smoothSolver:  Solving for Uy, Initial residual = 0.000156948, Final residual = 5.42503e-06, No Iterations 1
DICPCG:  Solving for p, Initial residual = 0.000989077, Final residual = 4.76747e-05, No Iterations 86
time step continuity errors : sum local = 2.00519e-10, global = 1.7718e-11, cumulative = -1.55402e-07
DICPCG:  Solving for p, Initial residual = 0.000966843, Final residual = 9.47296e-07, No Iterations 295
time step continuity errors : sum local = 3.98418e-12, global = 3.43534e-16, cumulative = -1.55402e-07
ExecutionTime = 388.01 s  ClockTime = 389 s

Time = 39.45

Courant Number mean: 0.00998627 max: 0.0750074
smoothSolver:  Solving for Ux, Initial residual = 4.44649e-05, Final residual = 3.44545e-06, No Iterations 1
smoothSolver:  Solving for Uy, Initial residual = 0.000156794, Final residual = 5.41621e-06, No Iterations 1
DICPCG:  Solving for p, Initial residual = 0.000987962, Final residual = 4.75649e-05, No Iterations 86
time step continuity errors : sum local = 2.00034e-10, global = 1.77013e-11, cumulative = -1.55384e-07
DICPCG:  Solving for p, Initial residual = 0.00096549, Final residual = 9.48391e-07, No Iterations 295
time step continuity errors : sum local = 3.98833e-12, global = 2.98354e-16, cumulative = -1.55384e-07
ExecutionTime = 388.44 s  ClockTime = 389 s

Time = 39.5

Courant Number mean: 0.00998593 max: 0.0750069
smoothSolver:  Solving for Ux, Initial residual = 4.44204e-05, Final residual = 3.43994e-06, No Iterations 1
smoothSolver:  Solving for Uy, Initial residual = 0.000156639, Final residual = 5.4074e-06, No Iterations 1
DICPCG:  Solving for p, Initial residual = 0.000988048, Final residual = 4.75653e-05, No Iterations 86
time step continuity errors : sum local = 2.00014e-10, global = 1.76899e-11, cumulative = -1.55366e-07
DICPCG:  Solving for p, Initial residual = 0.000964311, Final residual = 9.48266e-07, No Iterations 295
time step continuity errors : sum local = 3.98736e-12, global = 2.82496e-16, cumulative = -1.55366e-07
ExecutionTime = 389.32 s  ClockTime = 390 s

Time = 39.55

Courant Number mean: 0.00998559 max: 0.0750063
smoothSolver:  Solving for Ux, Initial residual = 4.43762e-05, Final residual = 3.43444e-06, No Iterations 1
smoothSolver:  Solving for Uy, Initial residual = 0.000156484, Final residual = 5.3986e-06, No Iterations 1
DICPCG:  Solving for p, Initial residual = 0.000987347, Final residual = 4.75901e-05, No Iterations 86
time step continuity errors : sum local = 2.00095e-10, global = 1.76553e-11, cumulative = -1.55349e-07
DICPCG:  Solving for p, Initial residual = 0.000963073, Final residual = 9.48635e-07, No Iterations 295
time step continuity errors : sum local = 3.98844e-12, global = 1.18424e-16, cumulative = -1.55349e-07
ExecutionTime = 389.74 s  ClockTime = 391 s

Time = 39.6

Courant Number mean: 0.00998525 max: 0.0750057
smoothSolver:  Solving for Ux, Initial residual = 4.43317e-05, Final residual = 3.42894e-06, No Iterations 1
smoothSolver:  Solving for Uy, Initial residual = 0.000156334, Final residual = 5.38985e-06, No Iterations 1
DICPCG:  Solving for p, Initial residual = 0.000984189, Final residual = 4.73652e-05, No Iterations 86
time step continuity errors : sum local = 1.99126e-10, global = 1.76479e-11, cumulative = -1.55331e-07
DICPCG:  Solving for p, Initial residual = 0.000961552, Final residual = 9.47926e-07, No Iterations 295
time step continuity errors : sum local = 3.985e-12, global = 1.17337e-16, cumulative = -1.55331e-07
ExecutionTime = 390.17 s  ClockTime = 391 s

Time = 39.65

Courant Number mean: 0.00998491 max: 0.0750052
smoothSolver:  Solving for Ux, Initial residual = 4.42875e-05, Final residual = 3.42346e-06, No Iterations 1
smoothSolver:  Solving for Uy, Initial residual = 0.000156181, Final residual = 5.38115e-06, No Iterations 1
DICPCG:  Solving for p, Initial residual = 0.000982873, Final residual = 4.72346e-05, No Iterations 86
time step continuity errors : sum local = 1.98555e-10, global = 1.76318e-11, cumulative = -1.55313e-07
DICPCG:  Solving for p, Initial residual = 0.000960196, Final residual = 9.49011e-07, No Iterations 295
time step continuity errors : sum local = 3.98911e-12, global = 1.51933e-16, cumulative = -1.55313e-07
ExecutionTime = 390.6 s  ClockTime = 392 s

Time = 39.7

Courant Number mean: 0.00998457 max: 0.0750046
smoothSolver:  Solving for Ux, Initial residual = 4.42434e-05, Final residual = 3.418e-06, No Iterations 1
smoothSolver:  Solving for Uy, Initial residual = 0.000156028, Final residual = 5.37243e-06, No Iterations 1
DICPCG:  Solving for p, Initial residual = 0.000981751, Final residual = 4.72208e-05, No Iterations 86
time step continuity errors : sum local = 1.98474e-10, global = 1.76148e-11, cumulative = -1.55296e-07
DICPCG:  Solving for p, Initial residual = 0.00095893, Final residual = 9.47939e-07, No Iterations 295
time step continuity errors : sum local = 3.98416e-12, global = 3.59122e-17, cumulative = -1.55296e-07
ExecutionTime = 391.03 s  ClockTime = 392 s

Time = 39.75

Courant Number mean: 0.00998424 max: 0.0750041
smoothSolver:  Solving for Ux, Initial residual = 4.41995e-05, Final residual = 3.41256e-06, No Iterations 1
smoothSolver:  Solving for Uy, Initial residual = 0.000155875, Final residual = 5.36374e-06, No Iterations 1
DICPCG:  Solving for p, Initial residual = 0.000980775, Final residual = 4.70817e-05, No Iterations 86
time step continuity errors : sum local = 1.97867e-10, global = 1.75975e-11, cumulative = -1.55278e-07
DICPCG:  Solving for p, Initial residual = 0.000957573, Final residual = 9.47278e-07, No Iterations 295
time step continuity errors : sum local = 3.98094e-12, global = 1.47682e-16, cumulative = -1.55278e-07
ExecutionTime = 391.46 s  ClockTime = 392 s

Time = 39.8

Courant Number mean: 0.0099839 max: 0.0750035
smoothSolver:  Solving for Ux, Initial residual = 4.41557e-05, Final residual = 3.40713e-06, No Iterations 1
smoothSolver:  Solving for Uy, Initial residual = 0.000155723, Final residual = 5.35506e-06, No Iterations 1
DICPCG:  Solving for p, Initial residual = 0.000980172, Final residual = 4.71055e-05, No Iterations 86
time step continuity errors : sum local = 1.97946e-10, global = 1.75801e-11, cumulative = -1.55261e-07
DICPCG:  Solving for p, Initial residual = 0.000956348, Final residual = 9.47721e-07, No Iterations 295
time step continuity errors : sum local = 3.98236e-12, global = -2.47526e-17, cumulative = -1.55261e-07
ExecutionTime = 391.89 s  ClockTime = 393 s

Time = 39.85

Courant Number mean: 0.00998356 max: 0.0750029
smoothSolver:  Solving for Ux, Initial residual = 4.4112e-05, Final residual = 3.40172e-06, No Iterations 1
smoothSolver:  Solving for Uy, Initial residual = 0.00015557, Final residual = 5.34642e-06, No Iterations 1
DICPCG:  Solving for p, Initial residual = 0.000981274, Final residual = 4.71481e-05, No Iterations 86
time step continuity errors : sum local = 1.98103e-10, global = 1.75605e-11, cumulative = -1.55243e-07
DICPCG:  Solving for p, Initial residual = 0.000955284, Final residual = 9.5195e-07, No Iterations 295
time step continuity errors : sum local = 3.99972e-12, global = 9.48028e-17, cumulative = -1.55243e-07
ExecutionTime = 392.32 s  ClockTime = 393 s

Time = 39.9

Courant Number mean: 0.00998323 max: 0.0750024
smoothSolver:  Solving for Ux, Initial residual = 4.40685e-05, Final residual = 3.39634e-06, No Iterations 1
smoothSolver:  Solving for Uy, Initial residual = 0.000155414, Final residual = 5.33777e-06, No Iterations 1
DICPCG:  Solving for p, Initial residual = 0.000982295, Final residual = 4.74503e-05, No Iterations 86
time step continuity errors : sum local = 1.99351e-10, global = 1.75526e-11, cumulative = -1.55225e-07
DICPCG:  Solving for p, Initial residual = 0.000954377, Final residual = 9.4692e-07, No Iterations 295
time step continuity errors : sum local = 3.97811e-12, global = -2.05871e-16, cumulative = -1.55225e-07
ExecutionTime = 392.74 s  ClockTime = 394 s

Time = 39.95

Courant Number mean: 0.00998289 max: 0.0750018
smoothSolver:  Solving for Ux, Initial residual = 4.40245e-05, Final residual = 3.39091e-06, No Iterations 1
smoothSolver:  Solving for Uy, Initial residual = 0.000155271, Final residual = 5.3292e-06, No Iterations 1
DICPCG:  Solving for p, Initial residual = 0.000977, Final residual = 4.68202e-05, No Iterations 86
time step continuity errors : sum local = 1.96682e-10, global = 1.75297e-11, cumulative = -1.55208e-07
DICPCG:  Solving for p, Initial residual = 0.00095233, Final residual = 9.55955e-07, No Iterations 295
time step continuity errors : sum local = 4.01563e-12, global = -5.19171e-18, cumulative = -1.55208e-07
ExecutionTime = 393.17 s  ClockTime = 394 s

Time = 40

Courant Number mean: 0.00998255 max: 0.0750013
smoothSolver:  Solving for Ux, Initial residual = 4.3981e-05, Final residual = 3.38554e-06, No Iterations 1
smoothSolver:  Solving for Uy, Initial residual = 0.000155121, Final residual = 5.32061e-06, No Iterations 1
DICPCG:  Solving for p, Initial residual = 0.000975922, Final residual = 4.67539e-05, No Iterations 86
time step continuity errors : sum local = 1.96382e-10, global = 1.75126e-11, cumulative = -1.5519e-07
DICPCG:  Solving for p, Initial residual = 0.000951045, Final residual = 9.49643e-07, No Iterations 295
time step continuity errors : sum local = 3.98869e-12, global = -1.20974e-16, cumulative = -1.5519e-07
ExecutionTime = 394.03 s  ClockTime = 395 s

End

