/*---------------------------------------------------------------------------*\
  =========                 |
  \\      /  F ield         | OpenFOAM: The Open Source CFD Toolbox
   \\    /   O peration     | Website:  https://openfoam.org
    \\  /    A nd           | Version:  7
     \\/     M anipulation  |
\*---------------------------------------------------------------------------*/
Build  : 7-49b2b3b8b082
Exec   : checkMesh
Date   : May 14 2021
Time   : 19:18:00
Host   : "c405-134.stampede2.tacc.utexas.edu"
PID    : 114576
I/O    : uncollated
Case   : /work2/06782/kenmeyer/stampede2/final_serial/COE347/finalProject/test_movingboundary/box05_space/box05
nProcs : 1
sigFpe : Enabling floating point exception trapping (FOAM_SIGFPE).
fileModificationChecking : Monitoring run-time modified files using timeStampMaster (fileModificationSkew 10)
allowSystemOperations : Allowing user-supplied system call operations

// * * * * * * * * * * * * * * * * * * * * * * * * * * * * * * * * * * * * * //
Create time

Create polyMesh for time = 0

Time = 0

Mesh stats
    points:           20572
    internal points:  0
    faces:            70076
    internal faces:   29574
    cells:            19930
    faces per cell:   5
    boundary patches: 6
    point zones:      0
    face zones:       0
    cell zones:       1

Overall number of cells of each type:
    hexahedra:     0
    prisms:        19930
    wedges:        0
    pyramids:      0
    tet wedges:    0
    tetrahedra:    0
    polyhedra:     0

Checking topology...
    Boundary definition OK.
    Cell to face addressing OK.
    Point usage OK.
    Upper triangular ordering OK.
    Face vertices OK.
    Number of regions: 1 (OK).

Checking patch topology for multiply connected surfaces...
    Patch               Faces    Points   Surface topology                  
    frontAndBack        39860    20572    ok (non-closed singly connected)  
    bottom              214      430      ok (non-closed singly connected)  
    inlet               14       30       ok (non-closed singly connected)  
    top                 50       102      ok (non-closed singly connected)  
    outlet              14       30       ok (non-closed singly connected)  
    car                 350      700      ok (non-closed singly connected)  

Checking geometry...
    Overall domain bounding box (0 0 0) (1250 350 40)
    Mesh has 2 geometric (non-empty/wedge) directions (1 1 0)
    Mesh has 2 solution (non-empty) directions (1 1 0)
    All edges aligned with or perpendicular to non-empty directions.
    Boundary openness (0 -3.25401e-17 2.56426e-19) OK.
    Max cell openness = 2.2046e-16 OK.
    Max aspect ratio = 2.23874 OK.
    Minimum face area = 0.403467. Maximum face area = 1512.53.  Face area magnitudes OK.
    Min volume = 16.1387. Max volume = 14963.5.  Total volume = 1.72155e+07.  Cell volumes OK.
    Mesh non-orthogonality Max: 25.0828 average: 4.37473
    Non-orthogonality check OK.
    Face pyramids OK.
    Max skewness = 0.450095 OK.
    Coupled point location match (average 0) OK.

Mesh OK.

End

